108
Lattice="17.35 0.0 0.0 0.0 17.35 0.0 0.0 0.0 17.35" Properties=species:S:1:pos:R:3:momenta:R:3 pbc="T T T"
Ar       1.19965512      13.84289461       4.99225507      -0.04487238      -0.08904002      -0.01824691
Ar       9.48460543      11.19647182       5.81768567      -0.06999842       0.03425484      -0.00418984
Ar       6.34060925      11.07148280       2.41511401      -0.02699933      -0.04760659      -0.03675991
Ar       0.86596669       6.90437889       9.10209160      -0.00376853       0.03727786      -0.06814007
Ar       9.00734770       3.54313264      13.30486870       0.06551461       0.03442089      -0.03002266
Ar       4.35305435       7.45284028      10.20132909       0.01397103       0.01894997       0.05463134
Ar      16.74164800       5.37956231      12.92183140      -0.00874510       0.01900624      -0.10621575
Ar      14.39483450       5.12251251      10.25052572      -0.06060818      -0.11307909      -0.05781474
Ar       8.55891568       1.01069633       6.60334357      -0.05553014      -0.06127254       0.03090892
Ar      11.99009539       3.98641156       7.20203081      -0.03471625       0.06814482      -0.02334181
Ar       0.77481070      13.42024606       8.73633061       0.15495709       0.09204054      -0.03461665
Ar      13.21892666       0.06702915       0.98879898      -0.04584305       0.07500468       0.02992489
Ar       9.82624483       8.63393484       3.02344800      -0.00447048      -0.00840304       0.07120796
Ar       4.89233174       1.09488828       7.89176461      -0.03981534      -0.05265147      -0.00232299
Ar       7.24932947       4.49814776       8.34130215       0.02551711      -0.06095695      -0.02716013
Ar       3.98506362       0.70131987       1.25143143      -0.03115759      -0.02702901       0.03968108
Ar      16.81306491       1.12988656       0.54914040       0.02242983      -0.01422552       0.00416346
Ar       9.54111380       2.56247539       3.13732064       0.03037236      -0.02631701      -0.04798040
Ar       6.91725588       6.89771391      12.29687141       0.00924015      -0.03052269      -0.04565955
Ar       0.67524366       8.50560919       5.62817488       0.06353755      -0.00956188      -0.07834410
Ar      13.76035855       1.45217395       5.02890311      -0.04006725       0.06696391      -0.10346543
Ar       4.72407675      14.96854314       7.76021630      -0.04051685      -0.07591059      -0.05039592
Ar       4.86717442       3.10576424      14.35045004       0.10089726      -0.14280498      -0.05378981
Ar       5.31289082       8.08622079       6.28530850       0.02436548       0.08440884       0.09013180
Ar      10.55217180      16.49036710       3.22784396      -0.05039409       0.04677457      -0.04858782
Ar       5.81634066      15.89794030      13.99127452       0.10014092      -0.09502403       0.07185571
Ar       6.27117104       6.72256954      16.23624167      -0.08011342       0.01209459       0.01473959
Ar      11.54652313       2.56195441      16.12039189       0.11076626      -0.03459051       0.02295736
Ar      12.66731804      12.56062789       8.17508335      -0.07884934      -0.05128729      -0.05704573
Ar       3.26279839      13.70147810      11.40488590      -0.00776602       0.08272481      -0.03959220
Ar       6.07690568       7.41840598       2.14681898      -0.02414305       0.11285060       0.00971939
Ar      15.48109673      14.67483398       2.59564039       0.00862259       0.00651438      -0.07270890
Ar       9.06387885       5.37748047       5.22964769       0.04309268       0.00990800      -0.00256979
Ar      12.63671909       4.67469141       2.18163671       0.06885374       0.08194477       0.09886289
Ar      15.40425659       4.50097978      16.95810288       0.00316036      -0.01224347      -0.02156761
Ar      17.28900886       7.73369742      15.86494109      -0.01608344      -0.02741406       0.01801927
Ar       3.21516433       5.46204177       6.35972552      -0.05114104      -0.00631419      -0.00319632
Ar       5.71600563       3.00874083      11.02788909       0.13396203      -0.05346248       0.11961493
Ar       3.69775749       0.11952954      11.13421425      -0.05856356       0.05915369      -0.05202784
Ar       1.42087099       2.47678353      12.47195607       0.04012584      -0.01435299      -0.01499548
Ar      15.54106412       5.84626910       6.80218592       0.01666146       0.04441731       0.02640468
Ar      12.10188635       7.81337747       6.66168840      -0.04541435       0.07164492      -0.04821674
Ar       1.87028482      17.24005069       8.38322897      -0.02829902       0.05309455      -0.04467096
Ar       7.04609635      10.32638258      15.64625152      -0.01732320      -0.04498285       0.03518627
Ar       9.54287711       5.78690572       0.54902418       0.16039159       0.04452939       0.04242471
Ar       1.63458495       4.62245046      16.21846322      -0.07843750       0.01584178       0.04698304
Ar       4.27707967       8.99994390      14.12624443       0.02001645      -0.05919773      -0.00605765
Ar       3.31225733       4.53044044       2.64273216      -0.02809106       0.07040714       0.03976993
Ar       3.82984892      12.95329863      14.91958496       0.09685401      -0.01748555      -0.00615043
Ar       2.73681780       4.00141700       9.44031999       0.17877035      -0.04447958      -0.05696776
Ar      12.53933052       2.93717376      12.00305520      -0.02889343      -0.06336786       0.02715398
Ar       3.09555514       5.81058761      13.00481906      -0.08430498       0.03719233      -0.09281841
Ar       5.94461245       3.52001469       0.65566012       0.00521481       0.03352365      -0.02129583
Ar       8.75973011      10.38325900      12.16253507      -0.02386496      -0.01872992       0.01015420
Ar       2.25112817      10.80797186       2.31750352      -0.11035589       0.02974997      -0.05504535
Ar       2.40636389       9.98717892       8.38323270       0.03042902       0.04440816      -0.02750942
Ar       1.23045006      11.01344305      16.33964414       0.00720947      -0.09051660       0.06832491
Ar       2.21454955      16.62955569      14.84434160      -0.02120711      -0.03217166      -0.00076282
Ar      14.68022280       8.39419003       3.96228656       0.01860790      -0.02166836       0.03761844
Ar       8.90807272       9.42200635       8.49962665      -0.00516591      -0.05238307      -0.06311025
Ar      12.65901666      16.55087175      13.74939152       0.01808113      -0.02630317      -0.07533732
Ar       4.92278173      14.27953910       3.69265597      -0.00604247       0.12253835       0.00003603
Ar       6.10533822       2.90735532       4.49320293      -0.13739740      -0.05533310       0.05496044
Ar      17.32916225       3.59442661       3.48679832      -0.01536722      -0.04173413       0.08937575
Ar      15.49188396      12.54194188       5.86207007       0.02453286      -0.10507823       0.13265942
Ar       6.49390786      11.97692949       7.98988234      -0.01360476       0.03698345       0.03728219
Ar       6.11682117      14.74800415       0.15015403       0.06614036       0.01757313      -0.03379624
Ar       9.74260078      12.83635129       9.45803410       0.00798524      -0.01072286      -0.07407438
Ar      12.63891077      11.66964848       3.88074565       0.07999160       0.01375112       0.06701445
Ar      11.15647886      10.93410620      14.98665553      -0.05788263       0.03817918       0.03435192
Ar       8.37839841      14.84459981       6.18229554       0.04373800      -0.09284970      -0.03462761
Ar       9.94227268       2.47665472       9.53796984       0.06223273       0.00563407      -0.12017496
Ar      15.69485341       9.33992890       8.49743339      -0.05676360       0.04697817      -0.00650100
Ar      15.92162371      16.08804568       6.96408249       0.02888709      -0.01638606       0.05547357
Ar       7.11884242      17.24787824       2.65317214      -0.03289015      -0.02804062      -0.02420910
Ar       7.67037498      16.92683851       9.67011024      -0.05947903       0.06106033      -0.06695161
Ar       9.11381914      13.11233672       1.39517672      -0.00064870       0.10586761       0.02629357
Ar      15.24610364       1.95694400      14.34369736       0.09672682       0.00360894      -0.02035004
Ar      15.93003072      10.73975438       1.82180402       0.00033596       0.06705824       0.03691257
Ar       0.64266965      17.09398985       3.87503864      -0.07605053       0.03810375       0.03708707
Ar      15.67670783      15.06231042      16.18778679      -0.00227763       0.00550534      -0.07627664
Ar      16.94909951       2.49129954       7.09755331       0.03079872      -0.02238595       0.00285817
Ar       9.06499988      16.95496789      12.88807443      -0.00945581      -0.04448224      -0.00281093
Ar      17.33360155      13.44934939      13.51430841       0.02412311       0.02043327      -0.03460366
Ar      12.20306381      10.05332856      10.56757680       0.01221517       0.01550079       0.05894521
Ar       5.06779983      10.46034085      11.13385906      -0.01230200       0.11543295       0.04466063
Ar      15.02862141       8.23553901      11.91851607      -0.11378743      -0.01586850       0.06039464
Ar       3.97284206      11.61514786       5.60874955      -0.03573197       0.06577909      -0.07045987
Ar       9.64107797       7.56919031      14.60861188       0.00082828      -0.07279728       0.02099463
Ar       8.55486081      13.55146214      14.87623072       0.05775216       0.04832579       0.01104792
Ar      13.37140931       5.84890982      13.74004385      -0.01899298      -0.01923360      -0.01256233
Ar      12.89929630       8.41965736       0.30753053       0.04639737       0.04194335       0.05481619
Ar      15.93245579      16.46511807      12.29524369      -0.00743096      -0.00849072      -0.07227792
Ar      13.99924530       1.58127390       9.11275672      -0.02285980       0.10954527       0.09005451
Ar       1.17001592      10.52539648      12.16945870      -0.00015643      -0.03882508      -0.01165462
Ar      12.49702464      15.14781838       5.91076733       0.00489089       0.00830389       0.08384821
Ar      14.62818234      12.41666899      11.59503902      -0.01425338      -0.03678193       0.01945364
Ar       2.97724893       7.83988812       0.18419354       0.05665043      -0.08197085       0.02113989
Ar      10.41661307      16.30332646      16.80813797      -0.02219522      -0.08046774      -0.03414348
Ar       2.12502441      15.30120159       0.81731570       0.00325843      -0.02186679       0.06258802
Ar      11.11008769      15.88684084       9.19462512      -0.04277478       0.06519845       0.04097476
Ar       7.88050825       1.26197634      16.04787536      -0.07414778      -0.00486016       0.03481548
Ar      11.02534134       6.67640684      10.73587954      -0.07426485      -0.04830237       0.09866515
Ar       6.80333187      13.64001280      11.49274475      -0.03372325       0.04021871       0.01646739
Ar      11.50663912      13.58030973      12.25826644      -0.08797933      -0.02416206       0.06076507
Ar      13.18248873      12.78969525       0.44169731       0.05276727       0.03489154      -0.00483504
Ar      14.80978647      10.24663164      15.13178805       0.00424537      -0.03794967      -0.01878783
Ar       0.39310384       7.15395571       2.27782296       0.09771941      -0.08171566      -0.04657671
