108
Lattice="17.35 0.0 0.0 0.0 17.35 0.0 0.0 0.0 17.35" Properties=species:S:1:pos:R:3:momenta:R:3 pbc="T T T"
Ar       0.62940956       9.67136334       7.34754473       0.04077302      -0.06186046      -0.06615233
Ar       6.30001390       3.86566894       9.01326395       0.00200415      -0.09591345       0.00183323
Ar       8.50346981      15.25639779       6.73348185      -0.01656943       0.00844958       0.00065496
Ar       2.73753216       3.56988108       9.54334411      -0.00309663      -0.02595300       0.09501297
Ar       8.94170779       3.51342846      15.18088548       0.11835206      -0.00772277       0.12746167
Ar       7.30630911       9.04645569       9.89871196       0.02436692       0.00447006       0.04267159
Ar      14.14163191       2.79997977      16.80222341      -0.10585892      -0.00500457      -0.00670360
Ar      12.55277691       2.65305499       6.01110793       0.01283157      -0.02798810       0.11455780
Ar       8.76279666       6.42568513       7.97844254       0.00838973       0.04400096       0.18907367
Ar      12.89477932       6.43960545       4.22227506      -0.07121836      -0.02470327      -0.05021128
Ar       1.16602811      12.52447865       9.94619794       0.00588157      -0.05672248      -0.07710940
Ar      15.94291828      14.91856259      10.89252704       0.01850942       0.00858935       0.07788751
Ar       3.08622373       9.31175694       4.83915606      -0.07273573      -0.00263874      -0.07387603
Ar       4.33569787       4.31428144       5.80448519      -0.05116962       0.01357154       0.01553385
Ar       5.46499023       5.77989604      11.78990210      -0.04335838      -0.00002951       0.02886501
Ar       6.19923692       5.32889341       0.74955844       0.10254923      -0.13812182      -0.01231185
Ar      17.23913063       0.44206469       1.70872766      -0.14610552      -0.01763811      -0.05425748
Ar      10.05727767       8.80538783       2.48381724       0.02841111       0.00145855      -0.01116329
Ar       8.28895770       3.29447690      11.93365604      -0.01122001      -0.02229286       0.00223750
Ar       0.00589091      10.63650064       3.28443549      -0.00541811      -0.03573145       0.03797797
Ar      11.80747880      17.11438739       7.80650388      -0.05845676      -0.09366091       0.01079556
Ar       4.97721530      12.43490361       8.64099543       0.12105327      -0.01768824      -0.07983175
Ar      16.97692230      15.74779180      14.10638234       0.04553736      -0.02996419       0.00557718
Ar       5.92620022       8.65036975       1.62229906       0.01993774       0.02598997      -0.01718263
Ar       9.80258687       4.99361583       0.98349761       0.02749584       0.00015919       0.01704393
Ar       5.41413156       3.63316289      15.02143874      -0.04539409       0.09050682       0.00411397
Ar       7.31619855       1.48562945       0.96878602       0.05050843      -0.08624623       0.02339562
Ar       9.16552752      14.67917055      16.98615117      -0.04025224      -0.01300883       0.06126013
Ar      15.81367114      13.39045990       7.70885745      -0.05200012      -0.06937015       0.00413365
Ar       7.34566900      14.46690423      10.85179024       0.00469948       0.00451323       0.05926655
Ar       4.13005881       7.98818915      15.24420091       0.05783678      -0.10051872      -0.06886601
Ar      12.97503267      16.18642372      12.94993726       0.00082600      -0.02368654      -0.01054927
Ar       7.10848183       9.75059656       6.32265358       0.04530708       0.09592459      -0.01849397
Ar      12.33054882       6.56905645       8.09309635      -0.00714384       0.01284889      -0.02374405
Ar      11.73254133       5.87008988      15.30006685      -0.01536703       0.04429701      -0.05234468
Ar       8.33218393       7.45586337      16.04889238      -0.00410258       0.05533938       0.00326148
Ar       1.33573485       6.59963111       5.12535734      -0.11653652      -0.01676544      -0.09219874
Ar      10.53922711       0.63481752      11.12545167       0.02962510       0.01547645       0.04912163
Ar       7.04477490       0.41429913       9.59086711       0.01223443      -0.04507188       0.07914989
Ar       0.97566417       0.93884874      11.38228395       0.04217975       0.01830038       0.09897608
Ar      15.12686865       3.01847654       3.80163748      -0.10770961       0.02837771       0.02081675
Ar       9.87185507      15.80653281       3.48639133       0.05780959       0.01989428      -0.04727805
Ar       3.56849170      15.67718450      11.33761862      -0.06846517      -0.02318288      -0.00586123
Ar       7.90407617      11.07547773      16.65012152       0.11728709      -0.04615201       0.00156375
Ar      14.89908596       9.16476108       4.93660172      -0.06303164      -0.15359554      -0.00852932
Ar      14.28816047      16.53263673      16.36132155       0.02539250      -0.02118203      -0.02556492
Ar       3.92074535      10.02283622      11.14275213      -0.03508463      -0.02672642       0.09704310
Ar       2.71754297       5.09595062      16.80705871      -0.03237102       0.04847130      -0.02532744
Ar       3.96789259       0.16352688      15.08045559      -0.00832913       0.02171567       0.14569759
Ar       4.75712733       1.64659429      12.13490385      -0.02789586      -0.01201925      -0.08512983
Ar      15.96990694       4.38346278      10.01564588      -0.01341444      -0.02334270      -0.09216976
Ar       2.16157395       4.67357774      13.01869475       0.01176003       0.10174612       0.00960442
Ar       7.01144911       6.71396580       4.41298739       0.06672802      -0.00914164       0.05747327
Ar      14.26643859      10.07631557       8.35248479       0.01060273       0.00476398      -0.04591080
Ar       3.42539367      12.21418691       2.35165756       0.02945494      -0.02615268      -0.04756022
Ar       4.82722283       7.24633449       7.83339436      -0.04237511      -0.00123179       0.05317198
Ar       2.06444827       8.72759543       1.04741257      -0.02723735      -0.01625100      -0.00263581
Ar       0.97300504       1.89068919      15.52030403      -0.04980641       0.04468858      -0.03058150
Ar      16.45242984       6.90919971       2.00348481      -0.02289419       0.04500363       0.00157136
Ar      11.38461773       9.42733581       6.03008489      -0.01391625      -0.10844767      -0.06985403
Ar      14.13308633      11.91452359      11.57395930      -0.04448077      -0.04814167      -0.06260474
Ar       1.49753071      15.57383383       3.84631381       0.05291398       0.00671977       0.07657940
Ar       0.74058238       3.93063086       2.63453748      -0.05913871       0.02427114       0.01761768
Ar      13.73461757      16.58047994       4.37260371       0.04602404       0.02496580      -0.02451998
Ar       1.94514145       6.95067006       9.70063796      -0.00698096      -0.00352063       0.00046667
Ar       8.96649306      11.88366655       8.16968608       0.03244788       0.09747632      -0.04941947
Ar       4.47712626       0.10057149       4.31345284       0.04348061      -0.00907083       0.10357253
Ar       8.04737225       1.90603165       5.93433345      -0.06816217       0.04145272      -0.00611594
Ar       6.42352739      15.61031160       1.98856871       0.03348020      -0.04954597      -0.04831000
Ar       0.46609955      12.33900814      13.62112944      -0.09900265      -0.05538965       0.07862975
Ar       4.19796369       0.91711426       7.78901902       0.00964886       0.00579473      -0.03514883
Ar       9.84804243       2.72472437       8.53807690      -0.01143505      -0.05547075       0.06246464
Ar      14.35761279       8.33674262      13.57997167       0.03348242      -0.00498409       0.03551307
Ar      11.79846072      13.80078872       6.11581062      -0.00768125      -0.05415217      -0.04787054
Ar      11.03774943       1.81566351       2.54963682       0.03374807       0.02911269      -0.05508551
Ar      12.32484296      13.94032140       9.59268617       0.07423285       0.05260309      -0.05354700
Ar       5.98425631      12.84974604       4.68149926      -0.01825436       0.03130599       0.07556362
Ar       3.82875873      12.34801124      15.49857022       0.10614389       0.11186787       0.09873936
Ar       2.78202674      15.49213540       0.42132432       0.08819686      -0.01610376      -0.03728913
Ar      12.36687170      14.16281834       1.09159120       0.03296189      -0.00555892      -0.12539219
Ar      16.71607669      13.51375584       0.33011563       0.00331059       0.07173932      -0.09357854
Ar       0.66425506       2.93462605       6.50355748      -0.08884633       0.07052157       0.05396840
Ar      11.20173710      10.24284911      10.38410843       0.10559518       0.01143977       0.02222746
Ar       0.00971890       9.35654803      11.30960237      -0.04395841       0.00863785      -0.01737073
Ar      12.52983767      11.45490675       3.35457877       0.07933105      -0.05523402       0.00839628
Ar       6.70239453      13.61847536      14.54879981       0.04595299       0.06017209       0.03791135
Ar      16.62556284       5.06260956      16.25969508       0.04787915       0.06812812      -0.02011025
Ar       2.75541398      12.68991471       6.07256722       0.00066634      -0.01768004      -0.03493330
Ar       7.30194454      10.12877681      13.47430392      -0.08451002       0.00956624      -0.00743698
Ar       7.61682075      17.26831461      14.84915582      -0.02891699      -0.01948061      -0.04236843
Ar      12.67122064       3.85032792      11.54318533      -0.04629356       0.04529070      -0.05091251
Ar      13.81136967      12.64963530      15.15580184      -0.02820489      -0.03655415      -0.04751800
Ar       2.02028113      15.60536068       8.02551249       0.04489424       0.08121775      -0.00955699
Ar      15.86944791      17.11414274       7.12471593       0.13879857      -0.04859705       0.01375487
Ar      15.44666589       1.95897584      13.54343899       0.03263788       0.07329704      -0.01261392
Ar       9.76393537       4.72546580       4.78929811      -0.02148862       0.01235125       0.07708868
Ar      15.67183581       5.71740485       6.61510458      -0.02156685      -0.01708615      -0.02900812
Ar       0.19800545       8.61361334      14.89080519      -0.06725471       0.02983797       0.06515549
Ar       9.00706690      12.24552023       2.73717847       0.00173215      -0.05972130       0.00351316
Ar       3.49519200       1.72742572       0.95670816      -0.06752482      -0.02376314      -0.10210406
Ar      14.46697110       0.92301660      10.15785637       0.03138225      -0.04421155      -0.07825933
Ar      11.28241361       0.47759745      16.24277933       0.01495698       0.14142494       0.03637793
Ar      10.02731740       6.83513919      11.65664330      -0.01936384      -0.06521428      -0.06873076
Ar      10.07321762      14.38520555      13.42496292      -0.00736384       0.03867435      -0.00595859
Ar      10.78215073      10.06239829      13.86346989       0.00653758       0.07693921      -0.02218912
Ar      15.84473000      13.78841277       3.99137801      -0.02773601       0.10976568       0.08181010
Ar      15.21813673      10.21231647      17.32884668       0.03175712       0.13235238      -0.02329311
Ar      11.47494354      10.97734441       0.21623728      -0.06383906      -0.05027547      -0.07351069
