108
Lattice="17.35 0.0 0.0 0.0 17.35 0.0 0.0 0.0 17.35" Properties=species:S:1:pos:R:3:momenta:R:3 pbc="T T T"
Ar       2.09573377      11.31578905       5.73663670       0.03189157       0.00935889      -0.03345970
Ar       2.50243385       0.32210780       7.92695110      -0.05810011       0.05757128      -0.07662885
Ar       2.17352423      11.06492472       9.26893952      -0.04716051      -0.02280495      -0.00368143
Ar      10.20148892       3.01041754       4.63108090      -0.04997810      -0.04766466      -0.08086083
Ar       4.35356914      15.77382297      13.04923868      -0.01229641       0.04071828      -0.14040788
Ar      14.70251465      12.07471578      15.06249886       0.01341972      -0.02410395       0.05139147
Ar       0.77516834      15.28663647       2.96799850       0.02187182      -0.00566638      -0.01847261
Ar      13.58606319       5.75302087       9.17633708       0.02624066       0.06819776      -0.02195382
Ar      13.44487972       4.61354857      12.70943084      -0.01517435      -0.00702979      -0.00786125
Ar      14.53393340       2.97750920       3.26015856      -0.13561724       0.07432368      -0.02068024
Ar       3.05887290       7.43573056       9.58734772      -0.01863084       0.10760562      -0.06232696
Ar      15.97514962      11.35297335       7.17208960       0.01279145       0.04371541      -0.10122541
Ar       2.07907863       3.90228877       8.78706892       0.02411993       0.00123742       0.04248087
Ar       2.28038414       7.66067603       6.00123356      -0.01890512      -0.00153003       0.00410390
Ar       5.03778842       1.05815134      10.38323168      -0.06616064      -0.02764232       0.04747923
Ar       4.65048829      11.77230054      15.72841598      -0.01190305       0.08458862       0.00594587
Ar      14.64245034       2.31280431      15.59714695       0.01616311      -0.04777321      -0.01097180
Ar       2.12812315       2.36969503       1.45366726       0.00708283      -0.05231760      -0.00062162
Ar       3.76293485       3.79454883       5.42435433       0.00150113       0.02056539       0.02933771
Ar      13.11235920      10.47835550       3.92561555       0.02586061      -0.00495599      -0.00574609
Ar       9.57113046       5.76166642       7.11476214       0.04338678       0.08943427       0.15484576
Ar       6.59898997       8.63934081       9.93672909       0.08381186      -0.04432221       0.02870714
Ar       6.26474326       4.76221914       9.32549561      -0.07228997       0.02880422      -0.07719035
Ar       9.42772599      12.16872443      11.09419820      -0.09783075      -0.06605926       0.03575890
Ar       7.34276305       7.27275601       0.53293938      -0.08952052      -0.02484444      -0.00408807
Ar       3.17146480       3.05363240      15.71140178       0.08267752       0.06160460       0.02359691
Ar      11.59423358      14.64019464      17.06790745      -0.00485025      -0.02950743       0.03325481
Ar       7.95420498      10.56899785       0.59699951       0.05714692      -0.00271983      -0.13241876
Ar      14.57998300      14.10594892       9.24676134      -0.02677683      -0.03395293      -0.00008958
Ar      11.46359807      15.39624595      10.62136836      -0.01999388      -0.01378216       0.01954955
Ar       5.09452576      16.87210572       3.37696716       0.07390892       0.05557486      -0.08213984
Ar      11.42447124       0.85548515      16.59504484       0.02636349       0.10391009      -0.03798156
Ar       5.31934213      11.31568014       7.22666064      -0.02690646       0.11133870       0.02268645
Ar       9.35486611       7.90335088      11.71327156       0.02371505       0.03050760      -0.02498429
Ar       3.47210325       9.36088981      12.66398608       0.12505686       0.00534278      -0.07693172
Ar       7.46826284      14.16791942      14.48321626      -0.04923333      -0.03474495      -0.07715589
Ar       3.15436466       3.41435982      12.23950994      -0.10577384      -0.05778939       0.09651201
Ar      10.59662996       4.68094834      14.48226579      -0.07862282      -0.02045588       0.06762951
Ar      12.16745839       1.19403286       9.21285606      -0.08294710      -0.01868578      -0.09007912
Ar       1.36930859       0.15386916      12.30648170       0.09702719      -0.01100043       0.01475674
Ar       3.78334358      16.92625931      16.78308289      -0.06687971      -0.08641450       0.00266735
Ar       4.64730831      14.70456674       9.27893193       0.01273071       0.06280256      -0.02406021
Ar       5.53881650      12.00634077      11.91732080       0.00629466       0.04807668       0.09707818
Ar       0.38154489       1.16207711       4.56070374       0.02119899      -0.11899509      -0.02276672
Ar      16.58298872      10.92500416      11.95047024       0.07918753       0.05173635      -0.05034856
Ar      15.34963625      13.28933613       0.87608441      -0.00554990       0.03108796      -0.02080137
Ar       6.76323033       9.08767943      13.43050152       0.02993155       0.02186517      -0.02578550
Ar       5.40851456       6.19980321      12.71947304      -0.02282088      -0.07468643       0.05789071
Ar       2.17733333      12.60419297      12.65881851       0.01032088       0.00790011       0.03389765
Ar       2.92765161      14.58429130       5.69230956       0.00718505       0.02154685       0.02645303
Ar       5.96348987       7.31756638       6.65968920       0.15633525       0.04549825       0.08292172
Ar      14.97088745       6.45900116      15.27345807      -0.09988631       0.03357423       0.07114912
Ar       1.45778393      10.74401642       1.45412423      -0.02464574      -0.06512484       0.07105511
Ar       0.46213666      10.14591751      15.40846631       0.00931011      -0.03767372       0.02327813
Ar       6.75868517       4.15617406      16.13348219      -0.03160257      -0.05633045       0.03982495
Ar       6.78687403      16.54105133       6.78018762      -0.01852524      -0.05542749      -0.04877310
Ar       3.83097962       6.59220363       1.97586391       0.05550721      -0.01920885      -0.07141947
Ar      16.05970896       1.28169634       8.67656717       0.02042143      -0.07588226       0.04721014
Ar      16.90779165       2.95944862      13.38953066       0.04786041       0.10032056      -0.05039187
Ar       6.33394773      13.14744498       4.24234873      -0.02408808       0.08062636       0.02986459
Ar      14.19402368       0.79399029      11.93111318       0.00790551       0.05230214       0.00753564
Ar      12.45755749      12.31645905       7.31970630      -0.04271605      -0.07807962       0.00923665
Ar      13.45821397       0.46544787       6.01851135       0.02413824      -0.05242038      -0.00728161
Ar      13.44073754       6.43131336       2.64714996      -0.13957336      -0.05989541      -0.09341796
Ar      16.73923494       5.85057287       6.82457989      -0.02314952       0.02334268       0.06294775
Ar      10.22786019      16.49255670       6.67281049      -0.01366357      -0.03207335      -0.01426794
Ar       5.39384620       3.29358724       1.94313192      -0.01958087      -0.02097877       0.02309689
Ar       8.28131547       1.17340144       1.70194227      -0.01052362       0.05754896       0.03735616
Ar       5.29865930       9.96450493       2.79427770      -0.02616751      -0.04271407       0.03636977
Ar      12.03815257      11.24195771       0.08852618       0.03582830      -0.05136383       0.09081238
Ar       7.33744264       3.13241232      12.93096141      -0.01743987      -0.02719688       0.03631217
Ar       6.83705894       2.19772794       5.35444576       0.06914783      -0.02757763       0.00468641
Ar      16.90965347      14.78052134      13.24077425       0.09732802       0.08267430       0.01341211
Ar       9.98816002      13.38366555       4.12662693       0.04000171      -0.02057882      -0.12443906
Ar      10.34801673       8.43017806      15.60597354      -0.08830037      -0.00925987      -0.03490052
Ar       0.55918528       6.47635980      12.83850598       0.00987649      -0.01538919       0.00818263
Ar       3.85420780      13.84094576       1.43776821       0.01255848       0.01209401      -0.03495358
Ar      10.26543531       0.96622442      12.63371546       0.08600477       0.05810608      -0.00509664
Ar       1.06435938      13.93503651      16.35237203       0.07790318      -0.04830039       0.03549702
Ar      16.83917557      14.69208430       6.15959551      -0.03867058      -0.01358093       0.03141792
Ar      15.30411517       9.66714866       1.03200304       0.09840924      -0.13012672      -0.02832373
Ar      10.17663899       4.16906317      10.82046753      -0.03254232      -0.08031581       0.05067629
Ar       8.46590292       1.38781562       9.25849603       0.08441932       0.07170427      -0.00880222
Ar      16.28739171       8.54023031       4.25298775       0.01638623      -0.00244822       0.09715101
Ar       9.69615154       9.91933299       7.60648236       0.03517458       0.01672324       0.12388928
Ar      11.35060117      12.47775863      13.96108698       0.05300801      -0.01859751      -0.00879762
Ar      16.81547808       4.41199718       0.36432974      -0.00465220       0.01979775       0.02636309
Ar      13.74995198      14.15120075       4.26558937      -0.06944357      -0.07191321       0.03953519
Ar       9.45981981       4.22384164       1.02684190      -0.01335992      -0.01479345       0.00891932
Ar       6.99284334       0.67635467      15.46108149       0.04419509      -0.04557140      -0.00715829
Ar       7.21344100       5.56615786       3.90583575      -0.00221696       0.07685822      -0.00671179
Ar      11.27303740      17.02585857       2.59639640       0.02286563      -0.08130030      -0.01836780
Ar       4.30414176       8.06789870      16.24431059       0.00922375       0.02234989      -0.06500131
Ar       0.93195095      14.77374235       9.83756174      -0.03219406       0.03814726       0.07692159
Ar       0.80607087       5.20874167       3.38858330       0.03352364      -0.01372268      -0.03371131
Ar      16.24705261       8.47150338       9.44681102      -0.03299565       0.04442730       0.06126074
Ar       8.00370321      13.21677477       8.15121626      -0.09299195       0.05243640      -0.20307710
Ar      12.72451852      10.13033342      10.21480304       0.01645843       0.03926125      -0.08631574
Ar       9.91402566       8.13758553       4.37066858      -0.02499487      -0.05561336       0.05306694
Ar      14.65244249      16.90284495       1.63751322      -0.03202218       0.01151630      -0.00616213
Ar       0.22054832       0.64314625      15.84567861       0.07561553      -0.02763665       0.05962921
Ar       7.69627769      15.23430125       0.82169534       0.02999154      -0.01239112       0.00526226
Ar      13.17382102       8.92900036      13.56849701       0.03142876       0.06846342       0.09912458
Ar       7.83491137      15.64879476      11.17223024       0.07071173       0.02444206       0.05377012
Ar      13.52358271      15.66121077      14.37362910      -0.06666632      -0.04204819      -0.11328462
Ar      13.07803137       8.49218103       7.06187135      -0.05291845      -0.00004137       0.03146822
Ar      16.63670861      11.95590662       3.72045848      -0.07424159       0.01586442       0.06233647
Ar      13.07656830       4.38441526       6.09278906       0.00127072      -0.00246813      -0.10518994
