108
Lattice="17.35 0.0 0.0 0.0 17.35 0.0 0.0 0.0 17.35" Properties=species:S:1:pos:R:3:momenta:R:3 pbc="T T T"
Ar       4.97554075       4.69742647       5.29228400      -0.05019259      -0.01737892       0.00449145
Ar       6.82239194       7.62994266       4.00759964      -0.01632985       0.06548819       0.04014578
Ar      10.60708590       8.88811644       4.12956652       0.01336995       0.03108491      -0.01804652
Ar      14.40785730       7.66887678       9.79639948       0.06980917       0.06612850      -0.02248954
Ar       2.42118427       3.27528365       8.56121651      -0.05949903       0.01201501       0.05608165
Ar       3.73329015       0.66021480       2.73343642      -0.02909914       0.05430017      -0.03597135
Ar      15.20527359       4.20604590      17.21644452       0.02795980       0.05435996      -0.08146002
Ar      14.35429824       3.45598253       8.79667856       0.03301477       0.00289671      -0.00162028
Ar      10.32983471       5.02899364       5.16411488       0.06084370      -0.00538962       0.03619094
Ar      16.52351829      14.79351664      15.05818796       0.00179730       0.02557019       0.04911804
Ar      11.60130680      10.17084576       8.10663439      -0.03964181       0.03072052       0.06628966
Ar      17.02780049       3.68277449       4.62840047       0.04111647       0.01686402      -0.02751964
Ar       1.12533863       3.06970078       1.61515962      -0.01752553       0.07245576       0.09922955
Ar       4.87368997       6.86113651      16.66139490      -0.00196114      -0.02785026       0.02630700
Ar       7.98851439       3.99311264       2.61557913      -0.03332374      -0.09153637       0.00685129
Ar       0.01267492       0.05370021       3.61552339       0.00409347      -0.09015163       0.01002108
Ar       4.84714277       1.54336838       6.31932760      -0.02714235       0.02057663       0.03177205
Ar      12.16637577       2.93476446       2.12737006      -0.06437208      -0.01200757      -0.01938186
Ar       4.37143745       6.38731090      10.07971664      -0.04643803      -0.03876532       0.06167149
Ar       2.23869090       9.12914404       0.38016201       0.04452222       0.00170881      -0.00682631
Ar      14.01628182       5.48694171       4.81913677      -0.05808258      -0.01310660       0.07631984
Ar      14.21574058      15.96428507       8.81270497       0.08146602       0.02913019       0.04079111
Ar       4.57293371       3.42127608       0.31352184       0.00667891       0.03641236      -0.06893829
Ar       2.74432399       6.06504347       2.50166754       0.00798122      -0.02629450       0.04197798
Ar      12.38244686      16.57823492       3.66913071      -0.06012178       0.02255808       0.04473565
Ar       9.05370554       3.59711591      16.37783086      -0.05811204      -0.05605786       0.08357107
Ar       6.47500692       4.96269131      13.92400110      -0.05465807       0.01024528       0.02380798
Ar      10.50098268       2.87332485      11.79584157       0.07014496      -0.06262470      -0.04222444
Ar      13.56627837      14.25817270      13.18817813      -0.01973081      -0.09963822       0.01450666
Ar       1.01249506       0.07734809       8.26130678      -0.01920765      -0.03321471      -0.05258230
Ar       9.11763414       6.94470649       0.73416727       0.06155782      -0.04563475      -0.04457239
Ar      10.76639575       2.62088325       7.93301228       0.04268555       0.11390120      -0.02495159
Ar       8.42548719       8.62815713       8.33703703      -0.09931933      -0.02450809       0.02250565
Ar      10.08000735       6.22252064      14.30290835      -0.02711575       0.01593650       0.02240643
Ar       2.90402966      16.12788319      16.98977879      -0.01858740      -0.01650510      -0.03770622
Ar       0.90050483       7.18162382      10.00563357       0.00173317      -0.00505997       0.09977919
Ar       1.37582578       5.53415122      16.57737968      -0.07802300      -0.03346737      -0.05381645
Ar       1.44968519       1.63457555      14.99026068      -0.06504431       0.03036740      -0.06966540
Ar       7.43140447       4.66315530       7.60833330       0.00021056      -0.07202742       0.06071129
Ar       3.18760135       2.14316997      11.77495122      -0.01495132      -0.08821651      -0.03006706
Ar       0.22481909       7.04583917       6.05573164       0.09696306      -0.01180067       0.02084452
Ar      10.89003761       6.18876525       8.78047376      -0.03320210       0.05495931      -0.06216790
Ar      16.80199539       2.94500150      11.60998656       0.07048161       0.02125408       0.04921295
Ar      10.01038423      12.93842806      15.43356254       0.04874798       0.09699418      -0.00624372
Ar       7.68113863       8.93860002      15.01962766       0.06530396      -0.01118321      -0.02965786
Ar      16.95510765       6.55711898      13.09675237      -0.01974866      -0.01826351       0.00568792
Ar       4.38119959       9.49090248      14.10744901       0.03006795       0.04025099      -0.04742694
Ar       3.05910982       5.45176312      13.52176045      -0.00321468       0.03408006      -0.06028423
Ar      16.36427726       8.44580597      15.97700873      -0.03291955      -0.05365281      -0.03016398
Ar       1.02245213      16.59939553      12.02426969      -0.02757427       0.00041302      -0.01038358
Ar      12.48175454       3.52434056      14.95275878      -0.00472861      -0.02733160      -0.02270211
Ar      13.77918947       1.01237457      12.12658083      -0.03423838       0.03078118      -0.02084576
Ar      13.61559626       1.96471154       5.46840334       0.04427964       0.08950837       0.06480100
Ar       4.75233085      13.19768158      10.84059604       0.12006477      -0.10031445       0.08109753
Ar       1.18948255      10.36623983       5.69822366      -0.01983867      -0.05497212      -0.03002573
Ar      16.37960487      10.50526839       8.52253366      -0.00337692       0.02117981       0.01104540
Ar       5.25601344      11.05620248       0.73735280      -0.03440553      -0.01929656       0.05503332
Ar       5.98303284      13.07368430       3.15259344      -0.00531242       0.00467286       0.03947099
Ar      14.08480085       9.11474276       6.25261605       0.06017409       0.08398912       0.05482006
Ar       8.30890460      11.05706307       5.69220830      -0.09165606       0.05122438      -0.04143500
Ar      15.91771468      14.76158032       1.45817355       0.00598426       0.03113798      -0.00326286
Ar       9.97149782      13.59885356       2.85681521      -0.02521395       0.08168575      -0.07538804
Ar       9.54303761      17.23842432       1.04990205      -0.06131549      -0.04185656       0.05204416
Ar      16.70502389       7.17468203       2.43345978      -0.06204358       0.08150678      -0.02844406
Ar       4.40999238      10.03771641       3.88230314      -0.02803314       0.01143400       0.02540271
Ar      11.36310086      16.74481644       7.06390273      -0.04868183       0.01011329       0.02634484
Ar       6.26191113      15.12864661      17.18675803       0.01154225       0.01920461       0.07275869
Ar       8.40699550      12.62854367       9.40215939      -0.04060480       0.10271640       0.04065054
Ar      15.41910102      11.77517686       4.47581816       0.02415747       0.01524875      -0.01393631
Ar       8.93782732      10.46159864       1.14374645      -0.11008851       0.01934525      -0.04972452
Ar       9.86856616       1.53522303       4.53805156       0.07756057      -0.02871374       0.08633370
Ar       7.85891915       1.37871607       8.98343034       0.07665085      -0.02148560      -0.00953849
Ar      12.00931700      13.11236878       5.63594407       0.06510772      -0.03310672       0.04071662
Ar      16.19602467      14.06566688      11.09822530      -0.07347287      -0.11932175      -0.04127157
Ar       0.46959625      13.92621088       7.22940805      -0.06740491      -0.04636214      -0.08462718
Ar       5.40118006      14.38906273       6.78254111      -0.04983433      -0.01981847       0.00097691
Ar      12.70886184      10.89794916       1.96410922      -0.03591599       0.01406894       0.07052618
Ar      14.41783928       0.43731146      16.59159160       0.03810476       0.00184469       0.08913031
Ar      12.66476516       6.84379374       1.43945969       0.04286940      -0.09876533       0.03392127
Ar       8.20799157      16.09628122       6.49550114       0.04948535       0.02752754       0.02412351
Ar       2.55046173      16.28850326       5.60222712       0.04037278       0.04530883      -0.07166144
Ar      15.26906224      15.34249761       5.36008838       0.07034732      -0.04506919      -0.11873627
Ar       7.37571243       1.22524749      13.06851968      -0.03988234       0.02708055       0.03276709
Ar       2.28369515      13.41633653       2.86134904       0.00078751      -0.01198283      -0.13946568
Ar       5.74590926       9.18296330      10.54452645       0.01223183       0.01569089      -0.03172749
Ar       4.15680626       8.04645525       6.52840203      -0.03819671       0.01845450      -0.01483403
Ar      11.16317941       8.84853790      11.84463401       0.02792762      -0.03129485       0.01314028
Ar       2.55886977      11.25754911       8.86840894       0.05388348       0.07203772      -0.02034867
Ar       1.06975282       9.79486908      12.68468927       0.04184804       0.03034392       0.06388110
Ar       4.47105645      16.20893183      13.72828045      -0.03387844      -0.01911640      -0.06202291
Ar      13.61304376       6.84946549      13.46687156      -0.01211624      -0.04499618      -0.06450264
Ar      11.58674534       9.27691687      16.09577014       0.06477671       0.00518319      -0.07061051
Ar      13.67872302      11.83971375      15.72498139      -0.10171446      -0.01328735      -0.06268402
Ar       2.41408232      12.46069477      16.43315660       0.09401877      -0.02902653      -0.06776664
Ar       1.89105897      13.58849122      13.21995092      -0.01463590      -0.02996351      -0.05005471
Ar      13.65738444      12.72743029       8.95645218       0.01073576      -0.09495108      -0.05015289
Ar       7.97794989      11.23894102      12.63689266       0.09608896      -0.05518649       0.03040183
Ar       5.51815221      12.57995881      14.71390174      -0.05323989       0.06381344       0.05744622
Ar      12.21213443      14.68885833       0.37418051      -0.01404680       0.09176055       0.10145505
Ar       6.85582588      16.48791726       3.09314074      -0.01236380      -0.01987552      -0.02955224
Ar      10.62712216      16.49639727      10.63874538      -0.02275966       0.01993996      -0.01540151
Ar      10.73409416      16.43318814      13.97569507       0.05764137       0.00044293      -0.00459505
Ar       7.76759345       6.43973369      10.90768224       0.05983114      -0.00116901      -0.06642576
Ar       7.76317059      15.23787443      12.66097641      -0.03305156      -0.08491389       0.06969848
Ar       5.08655854      16.64876591      10.15947320       0.06635586       0.02239469      -0.02113031
Ar      11.16527932      12.66482037      11.43379833       0.01043682       0.02085586      -0.02235172
Ar      14.97806739      10.47005106      12.26486925       0.07296517      -0.02841532      -0.05781547
Ar      16.77778224      10.87336481       1.28065075      -0.02958954      -0.01623991       0.01419347
