108
Lattice="17.35 0.0 0.0 0.0 17.35 0.0 0.0 0.0 17.35" Properties=species:S:1:pos:R:3:momenta:R:3 pbc="T T T"
Ar       0.45409211       9.47686505       7.70076746      -0.03628110       0.02128342      -0.01125918
Ar       6.96070554       4.15415181       7.21459737      -0.03873179       0.01759463       0.03291481
Ar       7.97474364      15.12081489       7.02933846      -0.01554091       0.06472793      -0.02760520
Ar       2.54630818       3.26839157       8.46374672      -0.03540121      -0.02775823      -0.03011750
Ar       9.40280721       3.18965432      15.00042016      -0.04648376      -0.06950900       0.01774976
Ar       7.98801524       8.29151137       9.55829592      -0.04241101       0.03747893       0.10367733
Ar      14.50257617       2.56872824       0.66155430      -0.07059947      -0.02213085       0.01139433
Ar      13.11489217       3.96676305       6.40110496       0.05066552      -0.02061481       0.00072431
Ar       9.89828372       7.29000449       6.51821093      -0.06684479      -0.06103444       0.02790811
Ar      12.78427377       7.04691837       4.84993177       0.02725506       0.04428884      -0.00741176
Ar       1.48525274      13.35802547      10.37007986      -0.01747985      -0.02706015      -0.03582091
Ar      15.52098706      15.09914400      10.34859341       0.01321148       0.00122950       0.02889863
Ar       3.13988116       9.60155823       5.20703804      -0.07421332      -0.02969869       0.05135277
Ar       4.68557961       3.13333242       4.73847100      -0.04139893      -0.01891737       0.05137767
Ar       5.80601340       5.88486140      11.44937788       0.01877520       0.01698955       0.00822350
Ar       6.11945040       4.98293526       0.35234401      -0.06658956      -0.01304886       0.01518813
Ar       1.03507154       1.70928670       2.14318850       0.02559966      -0.02425751      -0.02302602
Ar       8.91705114       7.65691708       2.86056122       0.07362093       0.10670297       0.01233995
Ar       8.61858194       3.66798303      11.67991651      -0.03246415       0.04722677      -0.08130969
Ar       0.18125103      10.30889251       3.63559292       0.04465643      -0.04879153      -0.05700999
Ar      11.52138701      17.20960976       7.29362050      -0.06679509       0.04331173       0.04181207
Ar       4.58422134      14.18846219       8.28612508       0.02395510      -0.01763237       0.03467505
Ar       0.03826918      16.61413029      13.17944037      -0.04473363       0.00109657       0.02656693
Ar       5.82345321       9.26276041       1.98920991       0.03058262       0.04406584       0.03383251
Ar      11.10012524       4.09635664       1.26235741      -0.11785052       0.13810910      -0.00173352
Ar       5.65873941       2.87925353      14.79798976      -0.07483964       0.00076222      -0.04631711
Ar       7.86172945       1.32344295      17.32077099      -0.04712331       0.14218128       0.06166575
Ar       9.29566007      15.48192020      16.12898911      -0.06477274      -0.02333025       0.06789819
Ar      15.56894590      13.20404417       7.31356851      -0.01296065      -0.03414577       0.05370241
Ar       7.87211189      15.15414563      10.72405149      -0.03161909       0.08764894       0.07033061
Ar       4.89243483       8.24475096      15.37117738      -0.06348629      -0.02082115      -0.02612953
Ar      13.99513135      15.85552024      13.60147798      -0.01437837      -0.00197010      -0.09178527
Ar       7.98796217      10.34687394       5.85799330       0.03782267       0.00403368      -0.06902526
Ar      12.41628964       6.80218077       9.16774246       0.09563842       0.06295304       0.01760509
Ar      11.92603614       6.36449142      15.14590341       0.09335172       0.05106275       0.04468809
Ar       8.29512974       7.76964330      16.23037589       0.03549614      -0.04276907      -0.07780013
Ar       2.11261773       6.10913981       6.05592194      -0.07923756       0.08139169      -0.04944018
Ar      10.96637212       0.57708709      12.38950915      -0.02048224      -0.12342268      -0.02916775
Ar       7.72171914       0.90674778       8.91867824      -0.05310761      -0.06578180       0.03200645
Ar      17.00781522       1.02199978      10.18341184       0.04881758       0.04040146       0.05175678
Ar      15.91594816       3.35654506       4.18111882       0.00532565      -0.01967773      -0.09285047
Ar       9.72041638      15.23032384       3.82083147       0.00686541       0.05516743      -0.02983904
Ar       4.14538375      16.20732257      11.00269214       0.03420675      -0.10195970      -0.01233117
Ar       6.67052232      11.10151210      16.30456099      -0.03579901       0.04871273      -0.00530752
Ar      14.40989369       9.83633791       6.13507778       0.01659566       0.03730056       0.00364731
Ar      15.62541882      16.33304304       0.45900152       0.04210644      -0.03047913       0.01241962
Ar       3.67755274       9.70893543      12.16966861       0.00053341      -0.01922392      -0.05817175
Ar       2.55790558       5.18934850      15.48275555      -0.10069730      -0.04870431      -0.00447445
Ar       3.57455617      16.34681527      14.54059490      -0.02326649      -0.03121588      -0.03229451
Ar       5.10591357       2.35460319      10.47895863       0.04258624       0.05776935       0.06330781
Ar      15.61881251       4.18262554      11.75732652       0.05778049       0.13937483      -0.00269397
Ar       1.89939439       3.46714438      12.13250123       0.03992455       0.01831330       0.05121853
Ar       5.51584298       6.77454050       4.51125057       0.04025793       0.03221728      -0.06075201
Ar      14.56056612      10.92120335       9.85985319       0.01197305      -0.06128574      -0.01353757
Ar       3.42364553      12.42466246       2.17215954       0.10036139       0.13609324      -0.00896174
Ar       4.86453685       7.29670840       8.42711638       0.09720592      -0.00285292      -0.03727032
Ar       2.57849699       8.58156325       1.28262582       0.02314331      -0.10906796      -0.00128998
Ar       1.49863410       1.46905992      15.95945495       0.03933422       0.03478961       0.06221486
Ar      16.66716133       7.02798851       3.67191729       0.06568896      -0.08167310       0.00565898
Ar      11.17994085      10.35881367       7.74271158       0.00858989      -0.06853297      -0.02697113
Ar      13.46705931      12.36595401      12.85718892      -0.10764156      -0.05830745      -0.08922857
Ar       0.08052474      15.54003551       4.10955621       0.05452689      -0.04924302      -0.00527387
Ar       2.89947633       4.62645673       1.65065768       0.03288650       0.00457470       0.11573566
Ar      13.27851543      17.16169621       4.20381559      -0.06199523       0.04255174       0.04362234
Ar       1.65357804       6.47263601      10.56983412      -0.06291292      -0.00182844      -0.08023315
Ar       8.14016650      11.94428756       9.35181013       0.03715133      -0.04119581      -0.09846714
Ar       3.39954370      15.99702862       3.72838879       0.12290543      -0.07117557      -0.05067333
Ar       7.96911425       0.74739015       4.70706746       0.03025144       0.07637046      -0.02375236
Ar       6.22140404      15.81777842       1.17438391       0.04227170      -0.01997274      -0.00620318
Ar       0.11972811      12.87584168      14.10963087       0.02540890      -0.05178205      -0.02723787
Ar       4.84175368       0.38683275       6.88975424      -0.03923555       0.04429706       0.15830232
Ar      10.27269512       3.81257051       8.44572196       0.02982231      -0.00317005      -0.03962949
Ar      13.82595644       7.50450125      12.28555272       0.06399823      -0.07831073      -0.02551614
Ar      12.19883535      13.57306326       5.81240792      -0.01210222       0.05067266       0.08227087
Ar      10.40589250       0.96634749       2.13743995       0.00858605       0.07655332       0.02025284
Ar      11.24856350      13.65755126       9.79386253      -0.00394684      -0.06693370       0.07561070
Ar       6.34655388      13.39471200       4.47265654      -0.11921415       0.04633008       0.01384016
Ar       3.02310980      11.26277350      16.22604355       0.00735258      -0.00432006       0.01958454
Ar       2.10796754      15.44698882       0.42397321      -0.04186378       0.02372201      -0.04934238
Ar      12.10787081      15.68177334       0.80138922      -0.04943551      -0.03535150      -0.00765755
Ar      17.05430605      11.86562514       0.60571636       0.01550112       0.06584472      -0.05555039
Ar       1.60932212       1.26309618       5.73385433       0.08701429       0.02751568       0.07056860
Ar      10.95847853      10.31558163      11.23488835      -0.03134957      -0.00516543      -0.04064546
Ar      17.30369103       9.96637896      11.72673786      -0.00725103      -0.00622762       0.04874290
Ar      11.10588504      10.11723373       3.95709609       0.07698159      -0.02425730      -0.10771216
Ar       5.68113913      13.19771362      12.77307200       0.07951809       0.04188001       0.06300593
Ar      16.50580296       6.10789604      14.77228236       0.03239503      -0.01898487       0.05798744
Ar       1.95094960      12.69244777       5.88968929       0.00022818      -0.01986958       0.04886793
Ar       7.47863916       9.89699500      13.03602996      -0.04118585       0.03430806       0.00370792
Ar       7.57720447      17.19694331      13.54734752       0.05075446      -0.07036213       0.08079803
Ar      12.31264892       3.99037867      12.71828493       0.01607090       0.00365031      -0.02464999
Ar      14.11930693      13.12334414      16.28681281      -0.03066683       0.01608715      -0.03303610
Ar       1.50698962      15.94181498       7.85769613      -0.00581989       0.03401470      -0.13618523
Ar      15.52866382       1.25138590       7.06877233      -0.04551815      -0.00553892       0.07182346
Ar      14.93104428       1.92180483      14.46896286      -0.00716534       0.04973883       0.01561470
Ar       9.71771490       3.90740926       4.63479779       0.00474156       0.00918977      -0.10836382
Ar      16.02402468       5.54339239       8.36136711      -0.10027070      -0.01169076      -0.09541210
Ar       1.13416072       8.80094230      14.86247337       0.05518504      -0.07443867      -0.03369918
Ar       8.23404527      12.91495173       1.23990143      -0.02869175      -0.10647562       0.10982444
Ar       4.41672610       1.29366720       1.27706971       0.01847754      -0.00960793      -0.04883355
Ar      13.58842817       1.69366767       9.92659973       0.10357119       0.00048141       0.00363114
Ar      12.01925421       0.66368457      15.76942307      -0.05399740      -0.10214548       0.02726054
Ar      10.25362944       6.78327123      12.09468315      -0.09355110      -0.07441986      -0.00983829
Ar       9.37580714      12.77651851      13.76884160       0.16485388      -0.01371281      -0.01075932
Ar      12.18466026       9.66843962      14.80782037      -0.12374881      -0.03851978       0.02233039
Ar      14.39088507      13.66548560       2.95417665       0.06427476       0.10887328       0.00778529
Ar      14.57599863       8.44902952      17.06942215      -0.01222039      -0.01443247      -0.00454945
Ar      11.23156038      11.13282963       0.69350506       0.03871717      -0.02612679       0.00623028
