108
Lattice="17.35 0.0 0.0 0.0 17.35 0.0 0.0 0.0 17.35" Properties=species:S:1:pos:R:3:momenta:R:3 pbc="T T T"
Ar       3.52432330       1.49794510       6.30162170      -0.03115384       0.02926239      -0.00444456
Ar       6.01839416       7.29268350       3.53906576       0.02330997       0.01448529       0.10271253
Ar       9.11771248      10.13264751       3.32035297      -0.08024245       0.01264953      -0.01528553
Ar      14.01164009       7.71803664       9.98529196       0.03123545       0.09254538      -0.01776238
Ar       2.60825122       4.94588447       9.03330738      -0.11368173      -0.03215124      -0.00905265
Ar       2.71518558       4.13703335       3.63083168      -0.01818287       0.05768771       0.08300912
Ar      13.79908457       5.68998985       0.06429359       0.03295586       0.03242731       0.09008026
Ar      16.27836814       4.75539429       8.82655026       0.07927277      -0.11470447      -0.03425927
Ar      10.56500707       5.73596114       4.97535483      -0.03777375      -0.06766373      -0.00936945
Ar      14.83247005      16.43828608      15.33252037       0.07490997       0.02209548       0.03774640
Ar      13.02430048      11.04083381       9.87145747       0.04173028      -0.03702918       0.07068300
Ar      17.01848718       2.36483423       6.26253638      -0.01205372       0.05619582       0.04535509
Ar      15.31283809       4.38127065       3.39114224      -0.12310946      -0.01916598      -0.00309043
Ar       4.06466364       5.41333106      17.23176808       0.00278789       0.03081748      -0.02188700
Ar       6.40472047       2.79010024       2.69406676      -0.12180549      -0.03744027      -0.02013491
Ar       1.03294599       0.84968164       3.05135811       0.10056955       0.01313387      -0.01271676
Ar       3.81709104      15.09642027       7.00873099       0.01408800      -0.06842352      -0.00097485
Ar      10.95409046       2.05380476       0.43098966       0.03015660      -0.02040187       0.01235958
Ar       6.90813185       6.59174846      10.22634047       0.02119531       0.00763395       0.05102160
Ar       2.38273130       8.80561728      16.68499527      -0.06168903      -0.03065080       0.00560971
Ar      14.53021722       7.59854606       6.08056412       0.03924148       0.00275581      -0.01814683
Ar      16.86046580       0.30092905       8.92082527       0.09221603      -0.07942903      -0.07589586
Ar       4.58846193       1.47827323      12.42408719       0.04208359      -0.02096402       0.04693670
Ar       2.34839105       8.41324679       2.90409127       0.06929477      -0.02082676      -0.00839747
Ar      11.83290043      15.35419402       5.21296742       0.00695898      -0.02040178       0.07734181
Ar       7.15912618       4.01210454      15.91968153      -0.12774660      -0.03530934      -0.03585901
Ar       8.13442803       3.89561251      12.29817903       0.01731309       0.00143414      -0.08360225
Ar      10.66719862       1.64701906      11.18222441       0.06822429      -0.02066633       0.02224730
Ar      13.96888256      14.39460058      11.80736002      -0.06571338       0.10976619      -0.00822950
Ar       3.22053179      16.59547675      10.14491562       0.07691280      -0.00777393      -0.01837735
Ar       9.56688191       5.40265751       1.10602076       0.12971386       0.02173552      -0.02764019
Ar      12.70722370       3.15685542       6.55084445       0.12591690       0.00967656       0.01122540
Ar       7.50682728       9.12846177       6.96789761      -0.02632394       0.05867549       0.02348591
Ar      11.29667994       4.67788969      15.10838131       0.06031955       0.00068692       0.00660425
Ar       2.06861919      16.48387680      17.25756154       0.05676914      -0.04043835      -0.05390614
Ar       0.84469567       8.03218949       9.82791202      -0.03290319      -0.00247939      -0.01074010
Ar       0.73996324       5.91323459      15.55367645       0.07991434       0.11594788       0.14518141
Ar       1.05528707       2.34907591      15.38219466      -0.01948959       0.03210780      -0.01018723
Ar       7.36426602       4.64592157       5.69274997      -0.04106951       0.08632430      -0.00811347
Ar       5.83299274       2.35607916       9.16691607       0.03756847      -0.02947639      -0.00699723
Ar       0.62478837       6.99502155       6.13964737       0.08120710      -0.04096869      -0.03131572
Ar      11.02511641       8.84968389       7.47448219      -0.01343728       0.09522222      -0.00492132
Ar       0.70257061       2.76643899      11.70307630      -0.04184230       0.01431912      -0.05441810
Ar       8.01810985      12.12798125      17.06290896       0.02765957       0.04334856      -0.04723569
Ar       7.16014143       7.47704828      13.78817111      -0.04498692       0.00312564       0.02971742
Ar      16.41081735       5.93047420      12.35797805       0.06173966       0.00138409       0.01063484
Ar       4.73716471       9.39693838      11.83159511      -0.15057601       0.02443104      -0.05575419
Ar       3.05996678       5.56616479      13.10751036       0.03149406      -0.10242207       0.02614259
Ar      15.76278696       9.50770755      15.74538248       0.04702069      -0.00543043       0.06784167
Ar       1.10072844      16.84367385      13.40003793       0.10907002       0.02042409      -0.05947970
Ar      11.88740523       1.26118217      14.48191377      -0.02858469      -0.01073660      -0.00158152
Ar      15.19375419       3.10171217      14.07195178       0.00985801      -0.03566000      -0.03279060
Ar      13.67908607       1.13808128       3.15867626       0.07112008      -0.01769991       0.08739591
Ar       8.54563290      10.58806402       9.97397190       0.01193966       0.00104548       0.04595076
Ar      16.77040074       9.84233102       4.39769100      -0.08294042       0.01904275      -0.01221772
Ar      16.16742157      10.03994860       7.81464306      -0.06908713      -0.05998251      -0.08023121
Ar       5.87850836      10.78177565       2.15079912      -0.09135226       0.02590561       0.00184961
Ar       4.01921852      13.59385818      17.19246749      -0.03614956      -0.08117400      -0.03082117
Ar      13.51652722      11.28045424       5.28663866      -0.08231656      -0.01337429      -0.06158008
Ar       6.34159647      12.12611248       5.93927763      -0.00355408      -0.01909263       0.00094111
Ar      16.06137464      16.54120652       1.15062653       0.02854027       0.09016804      -0.00698752
Ar       8.09924387      14.14325438       3.75442992      -0.05548694      -0.08301802       0.03044400
Ar       8.31218430      17.04343568       0.05538341       0.00525382      -0.08973895      -0.00916606
Ar      16.52739468       7.31009234       1.49467210       0.03801285       0.05692277       0.01607828
Ar       2.77909671      11.11308405       6.65899894       0.00300228       0.03849592       0.05532796
Ar      11.55112282      16.13531280       9.14323897      -0.07132341      -0.01228664      -0.02098953
Ar       4.55808383       1.50596532      16.88866688      -0.00701398      -0.00225564       0.02588014
Ar       9.88119817      14.00877140      11.56590631      -0.04817124       0.05248501      -0.03934619
Ar      15.24337448      13.41521154       3.45924738      -0.00840581      -0.04564909       0.01020708
Ar       8.07349149       8.57419126       0.13391285       0.05518177      -0.05156526      -0.06614797
Ar       9.02245705       0.52146058       3.83643131       0.06079652      -0.03441896       0.05284922
Ar       9.26541330       1.09176690       7.69141921      -0.01476509       0.03076264      -0.06663930
Ar      10.54136403      12.26950812       7.16757392      -0.00454902       0.13933723       0.02360146
Ar       0.05705425      13.95410639      10.84450081      -0.00887569       0.10188094      -0.00689804
Ar       0.14594461      13.58190441       6.12621173      -0.00388522       0.08869091       0.01855198
Ar       5.52576122      13.14074678       9.81921135       0.05792897      -0.02941519       0.07772509
Ar      11.28658972      12.75013484       2.81193582      -0.12974415       0.04236112       0.00422839
Ar      14.93944085       2.38681972       0.35441024      -0.03768980       0.00248304       0.05830696
Ar      12.25777164       7.71932821       2.30279417      -0.02088200      -0.02914974      -0.00902473
Ar       7.87706322      15.24767148       8.12696443       0.05570659       0.02922191       0.00042171
Ar       3.50005957      14.14739397       3.46199995      -0.04283377      -0.01999450      -0.06130785
Ar      15.40715179      16.56137663       5.46277809      -0.12301759      -0.00697860      -0.11761182
Ar       8.50433560       1.14511457      14.40398718      -0.07920798       0.04578854      -0.03317527
Ar       0.41266151      12.96124288       0.40497033      -0.03504311       0.02993511      -0.05816483
Ar      10.38597368       7.45339298      11.35588911       0.01670749      -0.01352857      -0.02071811
Ar       4.20917779       7.64727056       7.20760078       0.05154875      -0.06491365      -0.00348842
Ar      13.27365282       7.82100549      13.74740629       0.03241301      -0.10907878       0.10233337
Ar       1.86675423      11.17202911      10.26906946       0.00756581      -0.05639255      -0.03668853
Ar       1.63928772       9.06787931      13.44572192       0.07665870       0.05308386       0.00340813
Ar       5.70440727      16.56182925      14.59526019      -0.03194457       0.03845165      -0.02626130
Ar      12.82857920       4.46975640      11.01857326      -0.03756673       0.00275366      -0.03027991
Ar      11.47342982      10.21115483      16.78133880       0.04913391       0.08477801       0.00478280
Ar      13.65561319      13.42345646      16.96278163      -0.01287282      -0.00497467       0.06542014
Ar      16.57246472      13.62690529      14.24944754       0.02526367      -0.03617801      -0.10441229
Ar       2.59554370      12.62839165      13.59570809      -0.05170715       0.02010137      -0.05018731
Ar      14.14329020      13.84927871       7.62414772       0.04637654      -0.02947224       0.02167263
Ar       8.69172682      10.22917591      13.91127358       0.00518980      -0.02516416       0.00207305
Ar       5.48011936      10.08443537      15.78818917       0.06527022      -0.08736447       0.03053869
Ar      11.63140220      15.86232812       1.14763283      -0.06253053      -0.07478523      -0.04734994
Ar       4.73093361      17.26088646       2.87892569       0.00557109      -0.00087278      -0.10873281
Ar      14.93214034       0.50549875      11.56626239      -0.04793342      -0.01750716       0.03105817
Ar       9.95130574      14.27512789      15.10085559       0.02037211       0.07974582       0.05765007
Ar       9.88665727       5.04971294       8.41088761       0.00646318      -0.00576389      -0.05086296
Ar       6.76287826      13.22373682      13.39736725      -0.08195005      -0.17089916      -0.01760502
Ar       7.73366979      17.14995857      11.31323861       0.00129614       0.05729656       0.01118383
Ar      12.42920680      11.59449187      13.28996910       0.03041483       0.01477243       0.10260902
Ar      15.88244517      10.55205464      12.31774124       0.08784254      -0.08591466       0.09441588
Ar      14.49527430      10.31528564       1.53607657      -0.06311282       0.12340810      -0.02337889
