108
Lattice="17.35 0.0 0.0 0.0 17.35 0.0 0.0 0.0 17.35" Properties=species:S:1:pos:R:3:momenta:R:3 pbc="T T T"
Ar       1.87666944       9.35020175       6.77123761      -0.02571759      -0.08467755      -0.05433155
Ar       1.40049856      16.80161511       7.80659428      -0.02656109       0.16642833       0.00020514
Ar       3.95803073      11.84374444      10.30499646      -0.01539424       0.06218627      -0.07937611
Ar      10.40845611       2.50965087       4.42872061       0.05383280       0.07959797      -0.10333469
Ar       4.73467599      15.60951335      14.48072435      -0.03165598       0.00897134      -0.04081903
Ar      12.51279027      10.00326556      12.99820821      -0.02776726      -0.02774052       0.00163453
Ar       0.64061141      17.16020230       3.13576601       0.03599679       0.03891520      -0.05836171
Ar      15.71928179       4.49296439       8.92327862      -0.02499718       0.02197468      -0.02006896
Ar      13.71372880       3.05085767      12.26011861       0.02004856       0.15905138       0.02388314
Ar      13.35506922       5.57957552       4.73385781      -0.01008394       0.01695779       0.00781081
Ar       4.60393787       8.56864032       9.16887399       0.11576500       0.02899046       0.01996936
Ar      16.08813546      11.57957841       6.51111018       0.00102222       0.05345629      -0.00619198
Ar       2.84695574       1.84668047       9.84337658       0.03868083       0.01022261       0.08608529
Ar       4.11282790       6.79396302       4.88303955      -0.00675560       0.02825933      -0.00523147
Ar       5.28254167       2.32785609      13.22679288       0.01249659      -0.09392972      -0.06032137
Ar       4.66391920       8.75156348      15.58231874      -0.10663379      -0.09489347       0.07398135
Ar      12.90207341       4.34171586      16.53144962      -0.00883409      -0.03223213      -0.02119007
Ar      16.59425545       2.14277951       0.54221022      -0.02100757      -0.07683954      -0.01008634
Ar       4.50151021       3.71843917       6.79870916       0.03635288       0.01864191       0.12514718
Ar      13.31315923      11.19287712       3.84536109      -0.09054866      -0.00934409      -0.03532247
Ar      10.74887474       7.67754371       3.40167541      -0.08096190       0.09185630       0.00786307
Ar       7.78502034      10.82382064       9.31927281      -0.08842775      -0.06274866      -0.03305085
Ar       5.78140741       4.56064298      10.29111938      -0.00516443       0.01021111      -0.03149912
Ar      11.31600068      11.12574333       8.90999005       0.02993086       0.01535076      -0.00575322
Ar       6.15289601       6.89861667      13.23941341      -0.06065427       0.12099848      -0.01344713
Ar       2.40749643       1.62785330      16.32955257       0.00726671       0.05635300       0.03392436
Ar      11.23515564      14.62405432       0.31307158      -0.07598327       0.07995214      -0.06864277
Ar       9.70294172      12.01799493       2.43338936       0.08759830      -0.00106700      -0.00706519
Ar      15.53961761      15.70039501       6.62135139       0.09095896      -0.01532097       0.00902969
Ar      10.46477529      14.71400775      10.17032851      -0.07756927      -0.01678970      -0.00065209
Ar       3.53655509       0.53212484       4.81882820       0.05465923      -0.00383052      -0.03881067
Ar       9.51247680       4.01971503       1.62832575      -0.05734320       0.00528681       0.02774403
Ar       5.25847482      10.77753316       6.12139447      -0.07799436       0.05150403       0.08218678
Ar      14.06061440       9.04590595      10.18641288      -0.03094209       0.05566574      -0.02744551
Ar       2.94269437       8.79386444      12.42814654       0.04770889      -0.07115675      -0.06694258
Ar       8.34493675      10.28119181      16.94963018       0.05297959      -0.09177517       0.01681566
Ar       2.34603293       4.87117043      12.04024863      -0.01550071      -0.03620143       0.08054746
Ar       9.07278412       4.39774863      14.67542927      -0.00527184      -0.02725258      -0.01923425
Ar      11.56365856       1.73671341       9.20340220       0.05952716      -0.06291427       0.05955808
Ar      17.00931409      15.41808034      10.67730397      -0.04985693       0.00401184       0.08280580
Ar       4.99825742      16.68225403       1.08109967       0.05205534       0.04382148       0.04052927
Ar       3.60849986      15.76855093      10.69552751      -0.06334290      -0.00386759       0.09352811
Ar       5.87658569      12.45654135      14.49613059       0.04599620      -0.06310900      -0.03521018
Ar      16.19052814       3.22036832       3.82418270       0.08073411      -0.00374769       0.04917599
Ar       0.11071133      10.02419376       9.96900095      -0.02303115      -0.00626381      -0.03894109
Ar      14.34794101      15.58492073      16.61731738       0.04193102       0.03282800       0.14641372
Ar       8.67816486      10.13520676      13.29887360      -0.02293114      -0.08419181       0.02197324
Ar       9.67445100       7.77768244      10.65714572       0.08527708      -0.04073230       0.08628572
Ar       1.80137290      12.58552981      12.75537020       0.06267277       0.03166837       0.03879522
Ar       4.61860728      14.31263691       7.47956414      -0.01312040      -0.05285784       0.00990047
Ar       7.98600400       7.35735121       7.59429304       0.08319571      -0.07635501      -0.05911565
Ar      14.73176027       7.69981161      16.08766641      -0.03436891      -0.01145369      -0.01903612
Ar       1.57521719       9.61695680       0.20193627       0.02311115      -0.04584812       0.09729737
Ar      16.25143273       9.17466550      13.31297289      -0.05331961       0.06361753      -0.01610335
Ar       5.59120894       3.76145030       1.62792792      -0.09028312      -0.08836155      -0.02522349
Ar       5.86012408       0.48734946       7.85015402       0.03626073      -0.03604458      -0.03891451
Ar       3.11157171       6.61165489       1.32511796      -0.05342496       0.08666954       0.03054945
Ar      15.33811745       1.23899676       9.76792760      -0.00282455       0.02974683       0.00763663
Ar       0.49589216       1.64760422      12.86971509      -0.03795015      -0.00334332       0.00970228
Ar       7.30067417      14.06173516       5.14665066      -0.04507750       0.02253676      -0.02270562
Ar      14.92972804      12.60761489      10.78361393       0.05604870      -0.03329958       0.00718367
Ar      12.78015952      13.53727294       6.44786747      -0.06971875       0.10378020       0.05634370
Ar      13.65620376       2.56929109       6.34913917       0.02015973       0.03505400      -0.08510027
Ar      14.22177275       8.18749419       2.44632568       0.00467613      -0.10033357      -0.05345507
Ar       0.61114173       2.85836546       7.09908881      -0.05935761       0.03042448      -0.02442992
Ar       9.64857798      17.30503612       7.11597345      -0.05132881      -0.00705389      -0.09461202
Ar       2.50650271       3.44292513       3.12353297       0.00146958       0.02518480      -0.02038104
Ar       6.77352935       1.10525957       3.93417157      -0.05652774      -0.03073119      -0.05265384
Ar       3.21401092       9.98159999       3.24923246       0.06986735      -0.05915895       0.03579546
Ar      12.54402847      10.56125938      16.62488241       0.07574809      -0.01122499       0.12394591
Ar       4.89601908       5.01682764      15.64729209       0.15385014       0.00124145      -0.03326525
Ar       8.12102398       3.54612955       7.25752046      -0.07817504      -0.03096646      -0.04813217
Ar      15.65094655      12.91871458      14.07326394      -0.01901302       0.14890094      -0.01106363
Ar      10.83839427      15.51436469       3.78498043      -0.01785695       0.00175196      -0.07450711
Ar      11.01930308       7.36952285      16.70194428      -0.06820135      -0.00917537       0.01496599
Ar      16.30168183       6.09088909      11.71655878      -0.07103203       0.02303392       0.02293160
Ar       4.57589395      13.20822231       2.15526438       0.03959205       0.07043139       0.08877361
Ar      11.30525216       0.92751092      15.06217659       0.04898884       0.12500510      -0.00576230
Ar       1.98394564      14.29495016      17.26070633       0.00129917       0.02539610       0.00145609
Ar       1.56711550      13.51741030       4.83920609       0.01288231       0.02885867      -0.00850003
Ar      16.33533080      12.50988952       0.30705404       0.05662021      -0.00425305       0.01650008
Ar       9.91735430       4.38416784      11.31645969      -0.07313232      -0.03663863       0.05529334
Ar       8.38269195       1.02040909      10.58613981      -0.02979869       0.01635302       0.01152400
Ar       0.78615654       6.33149791       4.91524592       0.01253402      -0.01048532       0.02741801
Ar       9.04882994      10.55594440       5.70493800      -0.04790325       0.00658666       0.00191947
Ar      11.40843632      13.48865758      13.83359415       0.04938318      -0.00109711      -0.06844431
Ar      16.16172590       4.22289232      15.04195964      -0.01189455      -0.05491260       0.03385495
Ar      14.16461859      14.62874055       3.06022807      -0.06830737      -0.03172418      -0.00731559
Ar       7.76403110       6.69353336       0.46811649       0.09227950      -0.04384826      -0.08918176
Ar       7.04988159       1.49917537      16.27809102       0.06895617      -0.02319105      -0.09182665
Ar       7.56739862       5.36570875       4.37774673      -0.03850967      -0.00062065      -0.06962030
Ar       8.97915395       0.28504739       1.55881339       0.00553814       0.08024336       0.05430705
Ar       1.74516482       6.61363179      15.14641826       0.02209993      -0.15631809       0.05594442
Ar       1.26821859      13.25628731       8.42155414       0.01227789       0.02224064       0.08801490
Ar      16.55252634       5.85648619       1.53664728      -0.08532806      -0.01830698      -0.04330699
Ar       1.77334115       6.18368751       8.72901303       0.05269763      -0.01282870       0.05758131
Ar       7.04145961      14.30401991      10.75332377       0.12768814      -0.02457709      -0.02785573
Ar      13.12126012       8.89299517       6.58393302      -0.06764639      -0.09571071      -0.05980648
Ar       7.01707779       8.87374493       3.27845665       0.05152316      -0.00791733       0.02673537
Ar      13.57616107       1.06121812       2.41164770       0.07076944       0.05539654       0.01712608
Ar       0.51195449      15.80048700      14.32782974      -0.04790327       0.09118151      -0.15801734
Ar       7.51398863      14.26179459       0.67294635      -0.01839202       0.03737631       0.03833271
Ar      13.00994018       6.43016037      13.42164246       0.03253608      -0.01264963      -0.01208466
Ar       8.54718536      16.17944615      13.57932323       0.06280866      -0.11826257      -0.03095112
Ar      13.66619538      16.01314322      12.13492840       0.06115691      -0.10662099      -0.01017406
Ar      16.06230231       7.58079374       7.48413296       0.00761939      -0.11017609      -0.03220968
Ar      17.07998949       9.89254554       3.73412120       0.01937955       0.07847647       0.03949245
Ar      11.36620246       5.12391263       7.85143157      -0.10518125      -0.02567641       0.02866711
