108
Lattice="17.35 0.0 0.0 0.0 17.35 0.0 0.0 0.0 17.35" Properties=species:S:1:pos:R:3:momenta:R:3 pbc="T T T"
Ar       4.70861724       4.42416607       5.18128940      -0.01197800      -0.10176974      -0.06290640
Ar       6.69205967       6.46367132       2.91046196       0.09060118      -0.05821379      -0.14755380
Ar      10.70018248       9.07718310       3.70774909      -0.01643356       0.01306616      -0.04277431
Ar      13.99576711       7.12869290       8.84769189      -0.07651367       0.00939502       0.02749546
Ar       2.34532758       3.93719250       8.81255418      -0.01089497      -0.04436558       0.05126911
Ar       2.98158089       3.41076114       0.46373939       0.06199076       0.05319932       0.10890325
Ar      13.04096518       4.90138019      16.78027728      -0.10584445       0.08387792      -0.02136226
Ar      15.81014944       4.20315159       9.69908034       0.00797316       0.05669442      -0.08565910
Ar      10.63821921       5.13091684       4.90330019       0.09302391      -0.05773409       0.09967711
Ar      15.72442358      16.31667156      15.83539197      -0.03407973       0.12380637      -0.02045507
Ar      10.71327371      11.34167081       8.63664762       0.05679688       0.02657441       0.10665275
Ar       0.71430814       2.90859245       5.80698866       0.03323192       0.00726470      -0.05179477
Ar      17.27378356       4.59361677       2.80044463      -0.03990153      -0.02006543       0.00407886
Ar       4.79321867       6.17997118      15.77212232      -0.06828717      -0.05598643      -0.06179899
Ar       7.48207279       3.19374541       3.12884277      -0.07303042       0.01836632      -0.08086412
Ar       0.86728904       0.90292888       2.59061847       0.03178938      -0.10121199       0.05822941
Ar       5.34611181       0.74610928       6.96176173      -0.01935420      -0.04195039       0.06389569
Ar      10.50163260       1.74847833       1.40009121      -0.00066907      -0.06079675      -0.00784259
Ar       5.59159492       5.40407699       8.91093305       0.07903608      -0.00259194      -0.01183133
Ar       2.10816444       8.55163752      17.11307763      -0.02736138       0.01079380       0.02377148
Ar      14.57093935       5.03202549       5.90843770       0.01737435       0.00019325       0.03596247
Ar      16.88263191      17.21238312       9.08170327       0.04373019       0.02609917       0.05138517
Ar       4.06354294       2.93092550      13.92709019      -0.03940380      -0.03055419       0.03988367
Ar       3.10730273       7.82006197       3.80092486      -0.03496482      -0.01696030      -0.00893063
Ar      12.99452565      15.84893942       3.39697797       0.04253763       0.01822731      -0.00220104
Ar       6.90413073       3.59626289      17.16993234       0.05184913       0.01538415       0.09190690
Ar       7.19057516       4.67497095      13.55334225       0.06630612      -0.01026460      -0.01619286
Ar       9.88381471       2.37376201      12.39291831      -0.03994614      -0.10910496      -0.00510014
Ar      13.65898274      14.77982668      12.59425832      -0.06382563       0.05233104      -0.03718805
Ar       3.27993516      16.56576524       9.92646167      -0.00118939       0.13334024       0.20216558
Ar       9.80976582       5.58920930       0.64200527       0.08822610      -0.02425526       0.00693722
Ar      12.15852653       3.18145072       7.77094790      -0.01656935       0.01997548      -0.01490945
Ar       6.71328137       8.21921695       6.55908608      -0.06609172       0.06056478      -0.00631866
Ar      10.51754564       6.63381043      14.60115603      -0.01672063      -0.06527252      -0.04542275
Ar       1.79014879      14.98406382      17.10681206       0.03662921      -0.02747236      -0.03033591
Ar       0.57325918       7.02895417       9.81452037       0.05879887       0.06273666       0.07768626
Ar       1.05412293       5.29419278      15.21413733      -0.03804164       0.12009589      -0.06658998
Ar       0.67939537       1.48982363      16.14981720       0.07859848       0.00782612      -0.07783481
Ar       8.06105635       3.84809772       7.18779518      -0.09520059       0.01644327      -0.00854242
Ar       5.84255067       2.44743811      10.64963983       0.03661609      -0.00770122      -0.01425849
Ar       0.31793054       7.13988749       5.67830686       0.06288917       0.02962242       0.01830477
Ar      10.10575725       7.57207328       7.61933046       0.03087404       0.03025260      -0.05412430
Ar       1.10000705       3.01118244      12.03837812      -0.06133346      -0.00441369       0.02496835
Ar       9.40189560      13.67841320      16.80777954      -0.06737164      -0.03757317      -0.00487492
Ar       7.50971021       8.32248347      15.92987692      -0.03189259       0.01255341      -0.06357122
Ar      15.66111212       6.29565281      12.83723410      -0.05827206      -0.01625612      -0.05183920
Ar       4.82112222       9.96182305      13.89515632       0.04688326       0.01387883      -0.15605275
Ar       3.82979564       6.37137553      12.10300851      -0.01152565       0.03258234       0.09426887
Ar      15.54790281       7.74703314      16.19773861      -0.19668394      -0.13758307       0.01933465
Ar       0.23958037      16.59465229      12.78917794      -0.05183477       0.01564259      -0.00639628
Ar      11.56603650       1.82679857      15.48665661      -0.07485447      -0.04322593      -0.07446217
Ar      14.90288736       2.77249208      14.35754968       0.05265843       0.02886951       0.01978474
Ar      13.41022238       1.65852131       4.74312911       0.03152310       0.07106914      -0.08813261
Ar       6.27579831      11.74149375      11.08277520       0.08025200      -0.09613148      -0.07585535
Ar       0.09017541      10.50203584       4.68554968      -0.04611682       0.03122356      -0.04884448
Ar      16.26709662       9.79475153       7.91980054      -0.04881730       0.06834086      -0.05369967
Ar       5.10298825       9.75694636       1.90077407      -0.02939678      -0.04135758      -0.04331397
Ar       5.05404939      13.88903949       2.33848092       0.04575495      -0.05962817      -0.03461703
Ar      13.81842724       9.62861388       5.45324205       0.00480526       0.01583222      -0.02225864
Ar       8.27063018      11.33862932       5.61085683      -0.14681642       0.01681256       0.00326940
Ar      15.99683272      14.57345164       1.86361800      -0.03727323      -0.00165322      -0.03377193
Ar       9.66741840      15.88970686       2.37820782       0.08575214       0.02822195       0.03282838
Ar       7.89772042      17.05276951      16.88270350      -0.07018566      -0.00524558       0.00278085
Ar      16.84464887       7.97388404       2.15413683       0.11276614      -0.05922769       0.04220039
Ar       3.81989036      11.66418649       4.73724411      -0.09802978       0.01261351       0.02168902
Ar      11.72966119      16.45983297       7.31817503       0.08992802      -0.09552286       0.04390510
Ar       4.18596413       0.09235555      17.25350833      -0.10283167       0.08897797      -0.04593870
Ar      10.40860077      15.34755059      10.79956195      -0.06297211      -0.00775423       0.03003658
Ar      14.94301424      13.25797097       4.82975405       0.00090142      -0.10302421      -0.13965254
Ar       8.65245205      10.32203308       1.21382639       0.08169593       0.03025979      -0.04064304
Ar       9.75841463       0.93985718       5.11665969       0.04915655       0.05982409       0.00842775
Ar       8.77956967       1.08872059       9.09274989       0.04526512      -0.02247426      -0.03978767
Ar      11.23699250      13.13645438       5.57128271       0.03387674      -0.03507592       0.07822330
Ar      16.77520238      13.61852877      10.93148917       0.04230784      -0.00437921       0.05809442
Ar       0.32592176      13.36136275       7.23895605       0.00120004       0.02871231      -0.01684015
Ar       4.70842242      13.65972194       8.03300354       0.05293102      -0.06760723       0.10664201
Ar      11.99025601      12.74488089       1.73910079      -0.04832219      -0.03892372       0.05593883
Ar      14.67052029       1.79758046       1.00761121       0.06015782       0.04687465       0.03295048
Ar      13.47664607       6.57383322       2.73992601      -0.00417287       0.04003330      -0.05874102
Ar       8.01152153      15.04540751       6.66649925       0.02479038       0.01157420       0.04746210
Ar       2.37198590      14.94572405       4.21463926       0.06673269      -0.07716786       0.08584837
Ar      15.94941137      16.34301213       5.87271587      -0.05243338       0.08821438       0.06472560
Ar       7.06419147       0.75685318      13.41979493      -0.04948696      -0.11089915      -0.06269843
Ar       1.85806228      11.76017291       1.63279951      -0.01710352       0.00357746      -0.03471529
Ar       7.09039852       8.11279815      10.80333192       0.05313408      -0.01406481      -0.01204396
Ar       3.10714043       7.60828470       7.45682463      -0.03537874      -0.03009799      -0.00932729
Ar      11.61874367       8.10008326      11.48408198       0.04234762       0.10755230      -0.01134347
Ar       3.37989191      10.23009803       9.63510844       0.00804331      -0.04296737      -0.12137856
Ar       1.07897780       9.05494836      13.41214283       0.05767617       0.02524175       0.01528536
Ar       3.59036218      16.01752162      13.43277794       0.03780006       0.00805487       0.00991376
Ar      12.41129638       4.49222128      11.29077739      -0.00457855       0.02339933      -0.03553822
Ar      12.49023373       9.84062519      15.70226896      -0.01184962       0.02222246       0.04295803
Ar      14.41591211      12.94122211      15.62404305       0.03303704      -0.06027862      -0.00019194
Ar       0.55217378      11.67447442      15.72178798      -0.10621098       0.06169186       0.03080574
Ar       2.87679118      12.58327874      12.68961429       0.01069139      -0.00331758       0.10341315
Ar      14.32442861      13.08886955       8.61018288       0.06446632      -0.02591937      -0.02230451
Ar       8.73398622      10.60792024      13.58439379       0.00649330       0.02822287      -0.00706279
Ar       4.58872443      12.59653243      16.13121551      -0.00014774      -0.06754563       0.10403414
Ar      12.49017821      16.27711593       0.18710475      -0.02887518       0.04979590       0.08553357
Ar       5.65282031       0.02856827       3.43245474      -0.02928475      -0.00584306      -0.06356849
Ar      13.77550685       0.88960801      10.86611091      -0.05114324      -0.07193630       0.04204318
Ar      10.10744303      16.26952523      14.03037574      -0.01726104       0.00863538       0.08659747
Ar       9.12340133       5.30678396      10.33111032       0.01341081      -0.03624035      -0.08515696
Ar       6.74579552      14.23683971      14.13544479      -0.01209505       0.05284954       0.01206670
Ar       6.84897047      15.94491929      10.51397480       0.11916514       0.04309702       0.02774404
Ar      11.88259398      11.57664035      12.78025415       0.00304554      -0.04649410       0.04684687
Ar      15.06200851      10.16057603      11.05684115       0.02906153       0.10280069      -0.03420176
Ar      15.24278521      10.97154414       1.62606666       0.00427015       0.03071766       0.03279090
