108
Lattice="17.35 0.0 0.0 0.0 17.35 0.0 0.0 0.0 17.35" Properties=species:S:1:pos:R:3:momenta:R:3 pbc="T T T"
Ar       1.76962001      10.91257911       3.98690601       0.08191430       0.03659625       0.03570228
Ar       1.19468140      16.47664130       6.52235070      -0.08182437      -0.01238657      -0.09962547
Ar       5.62573158      11.84452534      10.28249106      -0.02812354       0.04181615      -0.06423359
Ar      12.04658555       2.94476230       5.05931095      -0.04419493       0.04706433      -0.03844837
Ar       4.75208942      15.66297305      14.27413113      -0.04734319      -0.00046063      -0.03386158
Ar      12.83417699      10.32953604      13.92024971      -0.11189136       0.05981441      -0.08742846
Ar       1.01564392       0.37085820       3.01919489      -0.01159882      -0.09699748       0.06430659
Ar      15.43791720       4.37242002       8.56071659       0.03238020       0.03384207      -0.15916590
Ar      13.30669981       3.69460324      11.58648016      -0.02806431       0.02027927       0.05569610
Ar      13.49322718       6.22138100       6.22550527       0.04614968      -0.05536849      -0.00695597
Ar       2.49286917       8.99175705       9.19636938      -0.03571559       0.00804771      -0.06588568
Ar      15.26810789      12.53853222       6.68626896       0.02232269      -0.00714371      -0.07021480
Ar       1.72009514       3.06650863       9.55787755      -0.04888011      -0.04912296      -0.08376583
Ar       5.13173234       7.08394450       5.27241333       0.04191180       0.05431335       0.07354425
Ar       5.89948513       1.50863293      12.43385851       0.02315648      -0.00674213       0.03571461
Ar       5.95108374       8.26530705      16.04620129       0.10100739       0.03288271      -0.00614036
Ar      12.89708213       4.04049803       0.48659163       0.00900258       0.00104525      -0.04911106
Ar      15.20035579       1.64881286      16.44011267      -0.02535319      -0.01825555       0.04979745
Ar       4.66853489       3.06649057       6.80497793       0.07247232      -0.01078977      -0.07071560
Ar      12.63093212      12.86916441       3.87278270      -0.00713144       0.04406250       0.01749053
Ar      10.22441297       5.75471234       3.10727538      -0.00106288       0.07467663      -0.04716197
Ar       8.24633075      10.78143511       8.39084892       0.02209942       0.03378983      -0.05879184
Ar       7.36110386       4.37094891      10.39707725       0.06622415      -0.09324656      -0.02799859
Ar      10.96594435      10.23568711      11.09879955      -0.00076414       0.01453703      -0.00713778
Ar       7.07043177       5.05725220      14.30366664      -0.03636118       0.04485281       0.05282175
Ar       1.34784742       1.52436005      17.21594255      -0.03327831      -0.03902315       0.01272370
Ar      10.79503150      15.17663985       0.14849354       0.05301712      -0.12021929      -0.04170445
Ar       8.36154360       8.33713181       1.77796695       0.08843658      -0.03392106      -0.02118594
Ar      13.56080376      15.59604818       8.08534004       0.00416200       0.01923900       0.04514575
Ar      10.79257195      14.59778252      10.49904064      -0.07503628      -0.06955997       0.05942384
Ar       4.91040954       0.19306632       4.48818092       0.14205503      -0.00041228      -0.00420451
Ar       9.73456193       2.51589576       1.19931833      -0.01590173      -0.02134017       0.08540184
Ar       5.03807899      11.54522066       6.51499829       0.00664534      -0.02533632       0.04211778
Ar      13.58507514       7.27039712      10.61918192      -0.01855433       0.00475271       0.03780877
Ar       3.44446182       8.19891534      13.07190347      -0.03175460       0.00862122       0.00847970
Ar       8.93950232      10.20742587      16.05089269      -0.00207616       0.03576478       0.02130491
Ar       3.72855238       4.59932714      11.77190365      -0.06193875       0.10131969       0.04709394
Ar      10.46847435       3.90117651      14.79697226       0.06633681      -0.03333990      -0.03696017
Ar      12.45615509       1.58157001       8.37199454      -0.10886146      -0.13099981      -0.07203734
Ar      17.06843709      15.01264391      10.76149689       0.07623492      -0.07960410       0.02819951
Ar       3.95365259      16.75052637       0.42859062      -0.01318664       0.04528563       0.03224858
Ar       3.22736570      15.66546766      10.32697929      -0.03873461       0.03995148      -0.04334969
Ar       5.19977688      11.06169476      13.67501835       0.06814366       0.04849218       0.01069869
Ar      15.24489854       2.81923521       3.03800491      -0.01689143       0.03749870      -0.12251940
Ar      16.64665822      10.77785732       9.97954659       0.06081919      -0.11077636       0.04898138
Ar      14.47154103      15.45375419      16.24429795       0.03979855       0.01325166      -0.06046335
Ar       8.55340452      12.24917000      12.61073109      -0.11067686       0.04754146       0.05280780
Ar       7.76214950       8.62307928      12.66982323       0.03395293      -0.06943825      -0.07541014
Ar       1.69512781      12.34600630      12.94846221       0.13008657      -0.03958965      -0.02522881
Ar       5.71169964      15.24169632       6.99055736       0.05940973      -0.00660165       0.00213122
Ar       6.07997509       8.25687875       9.43799042      -0.00346261       0.03737923      -0.05594490
Ar      15.07752295       8.51583828      16.56479623      -0.00221186       0.07980853      -0.01406799
Ar       1.48184567      10.79515873      16.27773884      -0.05003875       0.04932289      -0.01753288
Ar      16.73789011       8.78118026      12.90983385      -0.04910512      -0.00814069       0.07361944
Ar       6.51734991       3.08046130       2.71908195       0.02643116      -0.02779650      -0.00421523
Ar       6.69994378       1.09007276       8.78247584      -0.09069296      -0.00424313      -0.06013586
Ar       2.12929702       7.95924716       1.77359386       0.08199483      -0.03818231       0.02900305
Ar      16.10307635       0.89252840       9.26449868      -0.02332662      -0.02150050      -0.00269219
Ar       2.09899225       0.68228111      12.88237749       0.00555336       0.01569566       0.02521182
Ar       8.30804224      13.04784366       5.23853536      -0.04956153      -0.00010255      -0.00351317
Ar      14.05299712      12.95793113      11.49888437       0.04184626       0.06891597      -0.06363064
Ar      11.22622068      12.88352098       7.29093450      -0.04857927       0.05753828      -0.04300702
Ar      15.21535682       0.36632937       5.67153667      -0.04235471       0.08603551       0.05349421
Ar      13.10361191       7.41757744       2.43364580      -0.02561468       0.04403577       0.04204381
Ar       0.89588190       2.90337748       5.56450071       0.04624071       0.03112638      -0.05921906
Ar       9.10332017      15.44318135       7.66189979      -0.11149144      -0.06049212      -0.02711015
Ar       2.91094246       3.43345829       2.62478010      -0.01934916       0.00280779      -0.01578916
Ar       8.38222516       1.28622752       5.45294109      -0.04194973      -0.05995801      -0.00789856
Ar       4.62889490      12.30487670      17.00535528      -0.05551725      -0.03322883       0.09949543
Ar      12.32113145      10.90572669       0.04607664       0.00440724      -0.01420227      -0.03129119
Ar       3.08344153       4.94268559      16.88578626      -0.02544724      -0.01457475       0.02239003
Ar      10.06240082       3.78373838       8.23471131      -0.12028105      -0.03751466       0.00390563
Ar      15.89980343      11.79077830      14.97172022      -0.01110079      -0.02868579       0.11503042
Ar      11.40451434      16.44682490       5.10772063       0.00856924      -0.03171565      -0.06062362
Ar      10.85456449       6.57192572      16.92647217       0.04957972      -0.00239963       0.08346945
Ar       0.57781056       6.29888655      10.50679154      -0.02933005       0.03837511      -0.03109098
Ar       6.92515492      14.05836832       2.20308585       0.03123465      -0.03098897      -0.06411776
Ar      11.85673405       0.72832646      14.60775429      -0.13307471       0.01557716       0.00243608
Ar       0.73742148      14.90752677       0.43192054       0.01075670      -0.04434984       0.04540788
Ar       3.26133885      14.15230444       3.48622708      -0.04601125       0.03610088       0.08185073
Ar      15.17209972      12.59590659       1.22752736       0.05064536       0.00998599       0.07918759
Ar      10.36796972       5.80606859      11.81597489       0.05351496      -0.09901464      -0.00613288
Ar       9.75994066       0.64652059      11.34260704      -0.06444224       0.00218815       0.06600671
Ar      17.06722649       5.75858130       4.31361626       0.07281943       0.05436916      -0.07623236
Ar       8.02463056       9.31162997       5.20391789      -0.09123513      -0.03346712      -0.01554311
Ar      11.09842258      13.74058001      14.15058386      -0.02013212       0.09814304       0.01854201
Ar       0.34106308       3.63493459      14.44586499       0.03753718      -0.02599650       0.00558146
Ar      16.50401062      14.88907021       3.91370062      -0.04091308       0.00494710       0.02032250
Ar       7.01364953       5.46593243       0.62802249      -0.00472122      -0.00987672       0.08420224
Ar       5.61740952       2.35961534      15.96781432       0.05027962       0.04393673      -0.08017926
Ar       8.40493605       5.24955560       5.78613564       0.10646798       0.02151911       0.04069542
Ar       7.77436303      16.85078538       0.45703508       0.02620621      -0.06391104       0.01612692
Ar       0.84171249       7.45571263      15.74732847       0.00399036      -0.00541451       0.08200341
Ar       1.33342966      13.01677855       8.30909542      -0.09266782      -0.00316159       0.03590834
Ar      16.69647832       5.21259423       0.67410776      -0.03392203      -0.00722157      -0.01357526
Ar       2.03990814       5.76400475       7.36033224       0.03028872       0.05597826       0.01519076
Ar       6.96378560      15.28494129      11.30352673      -0.04173001       0.05157234       0.01716154
Ar      11.66146532       9.45791249       5.34712328       0.07988815      -0.01245638       0.00321529
Ar       4.98007434      10.44221238       2.78370732       0.02565781      -0.08681973      -0.00461737
Ar      12.82179206       0.17917501       1.51590950      -0.03145794       0.01878263       0.11119887
Ar       0.11437008      15.12699328      14.54059369      -0.03425718      -0.00472190       0.00443083
Ar       7.54626085      13.93828447      15.55043600       0.10207712      -0.04903725       0.00817207
Ar      12.88270339       7.00616438      14.06391906      -0.01431938       0.07699204      -0.07548560
Ar       8.56362580       0.20024842      14.56791081       0.03226770       0.04866433       0.02925913
Ar      14.10111370      16.39952788      12.74457802      -0.03890242       0.01037934       0.04937157
Ar      16.52882245       8.59297317       6.91390215      -0.00868584      -0.02735456       0.08178819
Ar      14.92607097      10.24359613       4.11501640       0.11742807      -0.01913814      -0.08190285
Ar       9.93409356       7.36513078       8.66003240       0.08766540       0.02682752       0.02989189
