108
Lattice="17.35 0.0 0.0 0.0 17.35 0.0 0.0 0.0 17.35" Properties=species:S:1:pos:R:3:momenta:R:3 pbc="T T T"
Ar       1.05141075      13.99799949       5.27772656       0.01053304      -0.03117109       0.07367330
Ar       8.52945913      11.21871263       5.61354987      -0.06605421      -0.04823111       0.00627100
Ar       5.83723788      11.63669801       1.69515600      -0.00387787      -0.00037734      -0.04529200
Ar       0.21729482       6.47343933       9.35661452      -0.04429654      -0.06567300       0.05304007
Ar       8.85245402       4.07772183      15.34927734      -0.03409192       0.04332549      -0.01195986
Ar       3.86027549       7.72722281       9.53611129      -0.03779354      -0.03762284       0.05457193
Ar      16.10281265       4.32006632      12.23099240      -0.00045822      -0.04837778       0.00003195
Ar      13.92905840       5.12242480       9.66633299      -0.00888143      -0.05837242       0.00125250
Ar       9.46808013       2.23240581       5.83671251       0.11363996       0.00429844       0.02434928
Ar      12.32543886       4.97222501       6.09698199       0.05824811      -0.03491650       0.00160285
Ar       1.55610654      13.79016306       8.94914075       0.02206242       0.00532074       0.02015143
Ar      13.96217650       0.76360425       1.61758709      -0.06404275      -0.05308733       0.13288257
Ar      10.09560232       9.12999145       2.11735650      -0.00639030      -0.01815973      -0.06230826
Ar       5.28943823       1.15973267       7.40886654       0.04781918       0.02160205       0.02460967
Ar       6.76682119       4.91977562       7.33918062      -0.01797957       0.08149149      -0.04243226
Ar       3.62809775       1.93197345       1.27827494       0.08581936       0.12136361      -0.05424749
Ar       0.22023315       0.79732250       0.77666630       0.05851824      -0.02432670       0.03907107
Ar      10.54983491       3.09307303       1.93473303       0.08743860       0.06508637      -0.01063302
Ar       6.71411819       6.12754687      11.88106285      -0.03106996       0.04246418       0.08153065
Ar       1.81384284       8.66338805       5.25561453       0.05410565      -0.03246122      -0.04771920
Ar      13.26116821       1.60122718       5.22236280      -0.01021890      -0.06962030      -0.01515642
Ar       4.30024868      15.23303946       6.85795585      -0.07789355       0.01385724      -0.01549926
Ar       4.82429858       2.20239798      15.36212895       0.11433996      -0.02337810      -0.00675759
Ar       6.03128582       8.43748839       6.41557193      -0.02537465       0.04382951      -0.07026915
Ar      10.85102956      16.79544260       2.60691085      -0.01188044      -0.09384383      -0.00887676
Ar       5.91487675      15.82307430      14.06182486       0.04311190      -0.01422874      -0.06148452
Ar       5.76186019       5.67804393      15.35538679      -0.14395239      -0.01924456       0.03453639
Ar      12.09455760       2.39133426      16.00384847      -0.02836902       0.03148740      -0.02503560
Ar      13.28534355      12.53626502       8.06608280       0.01827675       0.05239664       0.04625720
Ar       3.86159801      14.73338698      11.21922390       0.07203332      -0.00216146       0.02491971
Ar       6.00501527       6.80928227       2.31026213      -0.06356803       0.03908339      -0.07565437
Ar      15.83841082      15.14132401       2.54299280       0.05005209       0.05242940       0.08054314
Ar       9.07610026       5.53678453       4.40378449      -0.02048613       0.07313326      -0.12052918
Ar      13.44413347       6.10271570       3.17963686      -0.05396241       0.00814067      -0.12004017
Ar      15.01541545       3.93845702       0.40571302       0.04457770       0.04451261       0.01005197
Ar      16.67554263       6.70287883      15.09305623      -0.00606180       0.00850285      -0.08052811
Ar       2.08113673       4.58891302       6.57194508       0.01809167      -0.09463997       0.01471778
Ar       8.29815923       2.78869477      11.67145144       0.07341690      -0.03600168       0.06114945
Ar       5.08050813       0.68191873      10.92655029       0.06751362      -0.00063834      -0.01038394
Ar       1.35533522       2.05992542      12.23702161       0.01330351      -0.06352788      -0.06105172
Ar      16.25110384       6.48872174       5.84107521      -0.00203429      -0.02081941      -0.06127369
Ar      11.19360298       8.65217710       5.76684331      -0.03895124       0.07876539      -0.06838658
Ar       1.88782907       0.53403495       8.21044627       0.04884475       0.06760839      -0.00414478
Ar       7.21421269       8.80910563      17.14696285      -0.02861438      -0.10671226       0.06482912
Ar      11.87956835       5.87103472      17.22641523      -0.01755215       0.04665111      -0.04015035
Ar       0.71162422       4.30597172      16.74244851      -0.02980605       0.03166504       0.00244209
Ar       4.56638448       8.51852056      14.08084165      -0.01618570      -0.03975766       0.01200990
Ar       2.17302117       5.53924821       2.79273416      -0.07498857       0.05973459       0.08825563
Ar       4.24764990      12.14101003      15.31069411       0.06214739      -0.06111263      -0.01933983
Ar       4.21471799       4.11700947       9.78107966      -0.07729059      -0.03705145      -0.02460287
Ar      12.54059124       2.15644472      11.88418516       0.03022424       0.00900876       0.01239515
Ar       2.57634719       5.72847616      12.92870426      -0.07708391      -0.03706443       0.02573401
Ar       7.25103784       3.62832243       0.87867670       0.01929196      -0.08448052      -0.05301941
Ar       7.53049514       9.86314300      13.46034002       0.10140334       0.02012568       0.05253452
Ar       2.25469253      10.93308624       2.04102083       0.03655723       0.06058984       0.06230824
Ar       2.38049199      10.61613477       8.14734608       0.08879847      -0.00601489       0.00144070
Ar       0.82784458       9.99139217      15.75243998      -0.02238789      -0.04855196      -0.00226139
Ar       1.98157392      16.77318955      14.78544898       0.03600924       0.04698205      -0.01806774
Ar      14.87496241       9.51498273       3.96859565      -0.02134447       0.16502458       0.02508233
Ar       9.00370646       7.15262900       8.57669147       0.14349899      -0.04164555      -0.00700089
Ar      13.69808104      15.26047128      13.17142363       0.11827342      -0.02925722      -0.00028904
Ar       3.45124462      15.95066341       3.20185207      -0.06739386       0.00491400       0.00489995
Ar       4.89312798       3.71335157       4.27127710       0.02542658       0.14065355       0.03386018
Ar      16.84247906       3.58139136       3.33675378      -0.01866381       0.00094928      -0.02406569
Ar      16.70217271      11.58898351       7.37506963      -0.08034283       0.11099242       0.07892598
Ar       5.76100756      12.24510515       8.73708973      -0.04199488      -0.01580425      -0.04034358
Ar       5.27580430      15.87364020       0.02026744      -0.15311216       0.02438418       0.01492359
Ar       9.84253938      13.01000181       8.59530431       0.03550890      -0.01273253      -0.01150632
Ar      12.58323820      12.43478519       4.01514117       0.02049996       0.05336682       0.04750098
Ar      10.94438154      10.91682396      16.03113265      -0.03833451       0.00255256      -0.01127168
Ar       7.97174484      15.06110826       5.23361609      -0.04936354       0.01120717      -0.15261962
Ar      10.53711320       3.42082708       9.06585860      -0.03478526       0.00378613       0.02561467
Ar      14.28970893       8.92568040       8.36698253      -0.03462852      -0.02669801      -0.03048516
Ar      15.31677886      14.84230142       7.02337884       0.03439679       0.02863678      -0.06947233
Ar       6.96680831       0.50334030       2.75934262       0.01442660      -0.00330755       0.09574083
Ar       7.95414736      16.14321653       9.12458924      -0.00812737      -0.00228510       0.02875950
Ar       9.64463648      12.47929476       1.96226492      -0.06309537       0.02527548      -0.05498774
Ar      15.21526678       1.81012538      14.87601802       0.02714025      -0.04206003      -0.00036247
Ar      16.34661823      11.60634267       1.15953487       0.06323339      -0.02546701      -0.06982572
Ar      16.91167994       0.49403832       5.39909821      -0.05395456      -0.00495457       0.08603249
Ar      15.87055312      15.11529637      15.90364721      -0.06332547      -0.10306657       0.01862474
Ar      16.47269398       3.11283828       8.56917958       0.01914866       0.00032483       0.06835129
Ar       9.59916238      17.15889989      13.16438182       0.04356566      -0.00952850      -0.04002308
Ar       0.53487797      13.27077908      13.32446061       0.00810453       0.01802952      -0.06695060
Ar      11.09087330       9.21544752      10.63918997      -0.00704314      -0.09230800      -0.05100735
Ar       3.73013122      10.89350316      11.53931146      -0.10789847       0.04916450       0.00512330
Ar      13.85943932       8.85931869      12.92658899      -0.09027205       0.06785555      -0.00327427
Ar       4.53978830      11.65683280       5.55082257      -0.00696958      -0.00508426      -0.00080455
Ar       9.56823523       7.39323076      14.94730104      -0.04296589       0.07083545       0.05248096
Ar       8.56795546      13.42956360      16.19369678       0.04114885       0.05120657       0.08696569
Ar      13.30037677       5.13281885      14.21872613       0.06954414      -0.06688526      -0.07870966
Ar      13.51789334       9.30125964       0.51206418       0.01239997       0.05392267      -0.08771266
Ar      16.93112625      16.20234081      10.82310985      -0.00668110      -0.01391154       0.07583826
Ar      13.41907610       0.80217332       8.53754403      -0.03173397       0.00455776       0.00340655
Ar       0.57924448       9.37100972      12.33087756      -0.07410276       0.00098783       0.08506840
Ar      11.32934537      15.65970206       6.79329671      -0.07242115       0.00047159      -0.02197142
Ar      15.07649315      11.90291596      11.14642634      -0.00089682      -0.02134324      -0.04722309
Ar       3.51238026       7.62443606       0.05817716       0.04851821      -0.09712460       0.00840684
Ar      11.31068390      16.00905107      16.27053249      -0.02871254      -0.07286305      -0.05993702
Ar       1.60232859      13.78630180      16.65729093      -0.07959071       0.00055206      -0.04048065
Ar      11.46892812      15.53842828      10.66456713       0.05200878      -0.02348971       0.07670673
Ar       8.07675590       0.59379376      16.61218601      -0.01164946      -0.00779097       0.06815608
Ar      10.29817402       5.50086249      12.02045731       0.00627006      -0.11483798       0.00689143
Ar       7.36668751      13.51535126      12.00687007       0.01176119      -0.01358520       0.03207575
Ar      10.68040919      12.22709623      12.48800275      -0.02177981      -0.11429240       0.07525430
Ar      13.23670720      13.42562673       0.74598858       0.06282572       0.04815942       0.13185834
Ar      15.11841948      11.55988792      15.21554539       0.01392823       0.06730471      -0.07312099
Ar      16.87719192       7.99357021       1.09120549       0.10497500       0.09337866      -0.06316129
