108
Lattice="17.35 0.0 0.0 0.0 17.35 0.0 0.0 0.0 17.35" Properties=species:S:1:pos:R:3:momenta:R:3 pbc="T T T"
Ar       0.25335628      11.30554417       3.73579639      -0.08108860      -0.01735864       0.05307332
Ar       2.89527886       3.03084768       9.27601594       0.11868794       0.14602618      -0.03611443
Ar       8.44693000       0.51992978       6.73002449       0.06198984      -0.03586099      -0.01903331
Ar       0.22215292       1.39524008       6.50994573       0.00040777       0.08151589       0.00027728
Ar       8.43968508       4.02453224      11.67448248      -0.01526075       0.09363830       0.06205560
Ar       6.93930885       9.95359973      13.78203321       0.06618072       0.00550690       0.04527411
Ar      15.67141315       2.84557817       0.38308286       0.05431204      -0.07694028       0.02338597
Ar      13.78598568       3.50562227       7.17515323      -0.05081905      -0.08465354       0.00558664
Ar       8.93062047       7.10215299       7.66942895      -0.05470153       0.07845087       0.01172747
Ar      14.76816122       7.28353719       2.85714064       0.00213838      -0.08787630       0.09564290
Ar       0.77043778      13.32810720      10.78443667      -0.05799215      -0.03265451      -0.00270832
Ar      15.78244875      16.23815694       9.29468096       0.01047312      -0.07360949      -0.11881820
Ar       5.78697295       8.35251902       6.99398886       0.00108327       0.01629939      -0.03696382
Ar       2.53581369       8.69170498       5.28934448      -0.07745061       0.03759854      -0.02883560
Ar       4.60719392       6.33943836      12.37720489      -0.04568993      -0.12124454       0.09496831
Ar       9.99834682       5.40243460       0.75525091       0.04298153      -0.01474399      -0.04071590
Ar       0.22960386      15.03268447       3.88905482      -0.03910988      -0.15894755      -0.10499771
Ar      11.10197813       8.48436969       4.08263564       0.05590666       0.03114964       0.05268315
Ar       5.93531834       5.11175676       8.85822760      -0.06457846       0.05821226      -0.02636633
Ar      13.84411523      11.75939252       2.63818595      -0.04896327      -0.02091340       0.06118056
Ar      11.44639501       0.57171497       4.68671298      -0.10365531       0.01460293       0.02499078
Ar       5.63771747      10.04826169       9.91838942       0.03237109      -0.07289859      -0.01594215
Ar       0.66632316      11.87587037      14.31446096       0.03605932      -0.06329660      -0.09954092
Ar       7.55603342       6.96949104       4.05308208       0.04373669       0.10641597       0.07314996
Ar      11.09691938       2.91288484      15.23627048      -0.02153060       0.01281620      -0.05901334
Ar       5.55680461       3.32665156      14.27303715      -0.15154280       0.05874688       0.06693282
Ar       7.37356299       0.95518339      16.44916618      -0.03482418      -0.01708571       0.07001520
Ar       8.35350872      12.29386073      16.93887752       0.01487868       0.05633516      -0.00873762
Ar      11.67882695      13.30146236       9.03250643       0.04154392      -0.06881462      -0.07140181
Ar       8.83323343      15.54073237       9.77832537       0.00239164       0.03251713       0.05392605
Ar       6.12236917       4.38897662       0.45087637       0.11323219      -0.01030886      -0.05949815
Ar      14.45468592      14.34767263      15.41273180      -0.04821393       0.00506979       0.03807891
Ar       9.15896774      10.76061757       6.02400754      -0.08157010      -0.10185721      -0.07197344
Ar      12.88842768       7.13194922       6.96024993       0.01649486      -0.06851573      -0.00619192
Ar      11.04726578       6.28777721      14.66654232       0.05610129      -0.06331836       0.00165240
Ar       7.50817609       6.17758760      15.17132580      -0.01515049       0.00895298       0.08363695
Ar       0.59996534       8.43570784       1.45847387      -0.09369002       0.01225440      -0.03038853
Ar      12.03377338       2.87592423      12.03451851       0.05259199      -0.00259417      -0.00984040
Ar      11.00103820       1.17743113       9.23775691       0.10657246       0.08148541      -0.01724599
Ar       2.04930138      16.86038212      10.46959644      -0.02905523       0.00368070      -0.00742028
Ar       0.22016805       5.04311375       4.43232193      -0.03768540       0.09230004      -0.01773449
Ar       8.68257466      16.59345860       2.82183169      -0.08123664       0.07649372      -0.03779639
Ar       5.66603176      13.47909377      11.30104950       0.01299589       0.12406566       0.00175464
Ar       3.98171357       6.63099562       2.96908211      -0.02987236      -0.02517809      -0.07012579
Ar      16.09386532       8.93786235       6.05782354      -0.00426504       0.06448910       0.04828293
Ar      14.92457701      16.56244323       1.31950851       0.00585907      -0.02505050       0.00423413
Ar       3.40263538      10.52903547      12.52051352      -0.04052801      -0.05787625      -0.04460286
Ar       1.02452874       4.80247848      17.25302457      -0.08329578       0.03474826      -0.12052259
Ar       3.14665012      15.25587466      14.66215388      -0.01980393      -0.04889785      -0.00920071
Ar       6.64947166       1.51606824       9.68716196       0.04471938      -0.02812415       0.06334979
Ar      15.64697935       8.40639441       9.56291174       0.00228475       0.03796844       0.04759424
Ar       2.52062490       2.04664867      13.09858042      -0.03493769      -0.00939687      -0.05256187
Ar       3.11896005       4.96377656       6.08529835       0.00968872      -0.03940190       0.07427801
Ar      11.73788648       9.49368108      10.56109454       0.01811293       0.02082803       0.01383745
Ar       3.17538719      13.10041323       2.34695221       0.05734321       0.04434921      -0.00760679
Ar       2.21090871       6.65464688       9.38952823       0.09916875       0.04266450      -0.03600648
Ar       3.80881504       9.71763624       0.43940076       0.06746611       0.01299926      -0.08262830
Ar      17.18579471      16.38517849      13.51617030       0.04000165      -0.05279281      -0.05846413
Ar      16.53883265       2.66665705      14.39132833      -0.02838249       0.04967437      -0.03157114
Ar      12.51889608      10.92252809       6.10122234       0.03580984       0.12078967      -0.02915515
Ar      14.01552434      12.14694922      12.32502519      -0.07529392       0.03259126       0.01069255
Ar       5.12574675       1.50218398       6.65652810       0.13405346      -0.00800725       0.07414726
Ar       1.59505380       1.14865756       3.25353098      -0.04571411      -0.02845641      -0.02068057
Ar      15.02854076       2.26685915       4.19109542      -0.01288170       0.07740223       0.04611118
Ar       1.19653736       5.81493155      12.93051657      -0.02741407      -0.08149728       0.05779038
Ar      10.68288908      14.29846911       5.84252105       0.03260816      -0.03131002      -0.01054687
Ar       4.90930888      16.46762318       4.08480439      -0.01004248      -0.02547970       0.02777710
Ar       8.55740642       3.29869679       3.51726564       0.00015553      -0.03835678      -0.07751513
Ar       5.98465151      15.32736691       1.13618803      -0.10713474      -0.03910723       0.01143841
Ar      14.95733656       9.67203513      16.71353114      -0.06950186       0.04742495       0.00946325
Ar       4.62187519       2.88990385       3.17917234      -0.03393722      -0.02785680      -0.06310238
Ar       9.80912890       3.71480809       6.94914514      -0.04434017       0.00573029       0.10160723
Ar      11.17842313       9.73303103      13.95298797       0.00802050       0.03581294      -0.00128551
Ar      14.01702475      16.01304589       6.21783012      -0.06171356      -0.03113162       0.02445673
Ar      12.00510716       1.65995268       1.34015326       0.10826025      -0.01958141       0.00264072
Ar      12.76535855      15.80109221      11.59318786       0.12944494       0.01905549       0.05182219
Ar       6.56966523      13.20688298       5.11501089      -0.04332370      -0.01708033      -0.11793771
Ar       4.51272690      12.40698296      15.66857292       0.03941293       0.02106700       0.02518700
Ar       0.86479695      16.15085494       0.65665767      -0.06125752       0.06174483      -0.08804346
Ar      12.10460979      15.08402735       2.38554153       0.00651384      -0.04684222      -0.03223809
Ar      17.13080006      12.80213997       0.30051026      -0.05187925       0.01750743       0.06384454
Ar      16.98015880       4.51257254       8.10167145       0.04847486       0.07137359      -0.01691138
Ar       8.73150081      11.88996163       9.75851761       0.00575760      -0.07057195      -0.07412892
Ar      16.86127532       8.34236559      14.24202700       0.03233787      -0.10741342       0.10004074
Ar      10.39281133      11.89391084       2.66474821       0.04936212       0.00169283       0.05724422
Ar       6.84891815      14.95902127      14.86359115      -0.00928617      -0.05142969       0.01146486
Ar      14.04338464       6.44621974      12.63318921      -0.08342737       0.00574147      -0.08701124
Ar       3.09761921      12.44514802       6.03595696       0.00168778       0.05283015      -0.06776314
Ar       7.01785226       8.05773185       0.72319880      -0.01215112       0.09176314      -0.03574962
Ar       5.46476853       0.04349592      12.48982937      -0.01807716      -0.03176681       0.05453362
Ar      11.35969017       5.59090097       9.73654178       0.00975978      -0.01876403      -0.03400656
Ar      11.69095438      12.31491330      16.61260843      -0.02828921      -0.02561962       0.04818450
Ar       6.16388688      15.61139579       7.75260895       0.01882495       0.04776035       0.06228427
Ar       2.58378616      15.84046077       6.69111112       0.10722765      -0.05713102      -0.01275387
Ar      14.07598160       0.39475759      15.36307607       0.11190875      -0.03902498       0.07384948
Ar      12.38592474       4.81284141       3.92764738      -0.02888741       0.06358641       0.02271432
Ar       1.41234697      10.52225987       8.80233134      -0.05005364       0.00589461      -0.00856990
Ar       3.57550928       6.92279706      15.68058265      -0.01860419       0.07153707       0.01766203
Ar       5.28966965      10.03925997       3.74545721       0.02432815      -0.07687398       0.04681919
Ar       3.22136942       1.74959206      17.18225766       0.03864860      -0.00181254      -0.00777059
Ar      15.87375777       2.34167367      10.82223214      -0.00143125      -0.04444221      -0.05605675
Ar      10.84711566      15.67755535      15.79116899       0.12205483      -0.04854600      -0.00458180
Ar       8.57326217       7.67373911      11.36189400      -0.01908682       0.04553098      -0.07881074
Ar       9.43863972      17.09232843      12.65287207       0.00341648       0.03183902       0.04251502
Ar      10.06421051      13.30079577      13.03566530       0.09981106      -0.01144134       0.03253050
Ar      16.02449249      12.72565806       7.21176874       0.00991677      -0.00898214       0.07346992
Ar      14.23748092       5.93463687      16.57109460      -0.03604014       0.03743687       0.01539716
Ar      11.21918829       8.53878407       0.07867763      -0.04090957      -0.03923046       0.02793113
