108
Lattice="17.35 0.0 0.0 0.0 17.35 0.0 0.0 0.0 17.35" Properties=species:S:1:pos:R:3:momenta:R:3 pbc="T T T"
Ar      16.86159032       9.23428802       3.73560246      -0.00819159       0.01232887       0.04678339
Ar       4.72855904       3.66685761      10.25531875       0.01808236       0.05497258       0.03969512
Ar       7.51667462       1.35438495       6.73344962       0.05636622      -0.03567273      -0.00939087
Ar      17.16132908       1.50084417       6.13159995       0.06865068       0.05541902      -0.12430461
Ar       7.17663252       3.12620191      13.17735013       0.08895637      -0.00603592       0.01949345
Ar       8.59837936      10.42430179      14.17723660      -0.07268428       0.02892743       0.00521665
Ar      16.08875346       1.26436723       0.87478339       0.05878098       0.05019048       0.06429975
Ar      13.54586337       1.67305786       8.17428236      -0.02778275      -0.00349455      -0.04465848
Ar       9.03043464       8.20603188       8.60218466      -0.10465113      -0.03455104       0.00422858
Ar       0.88559813       6.36616414       5.90810705      -0.00572907      -0.00997593       0.06137962
Ar       0.74170007      12.29651143       9.15012865       0.09623676      -0.05357679       0.02856946
Ar      15.63795524      15.63452659       7.78954637      -0.08557040      -0.07396988      -0.05190344
Ar       6.08606889       8.84288732       5.32075203      -0.08207403      -0.05536875       0.00529438
Ar       2.28128357       9.73623435       6.65613226      -0.01890429      -0.00147580       0.07609557
Ar       4.91785148       6.94552956      11.54567166      -0.03411017       0.01962716      -0.01487998
Ar      10.36853365       5.61775907       1.17874432      -0.03476286       0.02153679      -0.03496542
Ar      16.18608525      16.19244560       3.73077188       0.00872977       0.01866754      -0.04403561
Ar      12.48942025       8.79484450       5.21105650       0.00588438      -0.05173876       0.02898053
Ar       7.20086661       5.48013870       6.95912476       0.08509327       0.03721524       0.04277468
Ar      13.54840046      11.69575138       3.13912392       0.04196650       0.00130848       0.06380732
Ar      10.01653412       0.46881396       3.87783397      -0.03280279       0.08798923      -0.00455999
Ar       5.80157055      10.26318747      10.96391030      -0.03225862      -0.02372049       0.02634802
Ar      16.98861270      12.73350630      14.33403114       0.03551225      -0.00082593       0.02954678
Ar       9.72622154       6.91682943       4.60372270      -0.00447248      -0.00510444       0.02470243
Ar      10.85524911       3.81269627      15.06895691       0.00445042      -0.00659896      -0.00110638
Ar       4.04831391       4.64479539      14.13617133      -0.08820837       0.01684575      -0.00869687
Ar       8.83754210       2.61752633       0.36657746       0.04882942      -0.06229806       0.09252714
Ar       7.79974291      11.60446422       0.88989064       0.07680854      -0.09751673      -0.02285044
Ar      12.51406849      14.55489097       9.01091734      -0.03699328       0.00929316       0.00010827
Ar       7.87162098      13.44692384      11.64099440       0.00103869      -0.01827105       0.02602373
Ar       6.69050377       6.22679294      16.00412562      -0.02427819      -0.00931585      -0.04503956
Ar      14.56234614      15.23315082      15.22542455       0.09779328      -0.02680998       0.06610260
Ar       7.57863233      12.49240737       8.33171319      -0.04201821      -0.00495931      -0.02092899
Ar      12.82319746       5.30021147       9.32153268       0.00502402      -0.03906293       0.07619469
Ar      13.49703073       7.35437601      16.23418322       0.07910777      -0.02755298      -0.06206763
Ar      10.42755082       7.27757757      15.19276251      -0.00410038       0.00472267      -0.00790158
Ar      16.95119712       6.96311058      17.09208463       0.10068284      -0.03442224      -0.15239145
Ar      11.71577795       2.72688240      11.83909497      -0.00628283       0.06742392       0.02432549
Ar      10.01676003      17.23959436       9.22244373       0.02459628       0.05765254       0.05015162
Ar       1.31886044      16.50512500       9.69644203       0.01955039      -0.02656359      -0.00195033
Ar       1.32597764       3.84069817       1.59249301      -0.03069069      -0.07169938       0.01301252
Ar       6.60015808      16.16785698       0.55129917      -0.09087270      -0.06640547      -0.07415767
Ar       4.57731544      14.54304484       9.23614218       0.01313313       0.05887599       0.07184594
Ar       2.42008493       7.76496516       2.61978364      -0.00614074      -0.01094825       0.00186300
Ar      15.86258464       8.82842078       7.18193656      -0.05531149      -0.00940752       0.02420390
Ar      13.41906299      15.55789894       1.61675983       0.01706630      -0.06873876       0.00383409
Ar       2.36581558       8.28631006      13.79115702       0.08182897       0.05442892       0.00522518
Ar       3.20344378       6.40186847      16.91122003      -0.00296351       0.00155637      -0.05125701
Ar       2.24524562      14.30275050      12.65181175       0.06714359      -0.02959337       0.07857346
Ar       6.65081160      17.12192003      10.11721415       0.05537099      -0.01212593       0.09138310
Ar       0.69598044       8.33393133       9.97755428       0.02593000       0.07476906      -0.05796803
Ar       2.93702636       1.00595826      13.09130954       0.06543743      -0.07461992      -0.02741675
Ar       3.49257870       4.22652133       5.78823665      -0.00830107       0.02823539      -0.09608392
Ar      13.63949932       8.55336189      10.50909463       0.04265570      -0.06717416       0.07583206
Ar       3.69771599      14.68262292       3.06892758      -0.06521072      -0.02162122      -0.09996328
Ar       3.31688459       6.48648367       8.46491624       0.00171338      -0.03397692       0.04129072
Ar       1.64345855      10.54797451      16.82629237       0.03112480       0.00783517      -0.14137683
Ar      16.15540879      15.51144805      12.19503402       0.05815907       0.00090497      -0.03919977
Ar       0.74049109       3.37259093      15.09967383      -0.00106740      -0.17789741       0.04226573
Ar      11.21727791      11.47626063       7.20051802      -0.10933957      -0.06106561       0.05100515
Ar      14.56277186      11.71217719      11.92596487       0.08908990       0.00085139      -0.02462949
Ar       3.66530378       1.32229971       7.45141184      -0.04908807       0.02918411      -0.17045629
Ar       1.96466083       0.24319704       2.55603793       0.00522209       0.00981671      -0.06287412
Ar      13.78139044       1.63858545       3.57940633       0.01551778      -0.03636464       0.04595265
Ar       1.03773483       5.09314597      11.32106920       0.04925128       0.02982990       0.02143502
Ar       9.31227484      14.80241403       6.27211642      -0.07662948       0.05248184       0.08449395
Ar       4.88435264       1.27553217       3.70812478      -0.02668555      -0.04241627      -0.05680972
Ar       7.86869447       3.97983081       3.74029218      -0.06149376      -0.00638275      -0.03567803
Ar       3.65429895      14.69902868      16.83602981       0.07435287       0.04355965       0.01729509
Ar      14.75958702      10.95856987      17.17811909       0.02483613       0.03684506      -0.08755966
Ar       5.30277080       3.72144815       1.05414519       0.06704027       0.01800629      -0.01342115
Ar      10.33709592       3.43709899       6.13798084       0.01667344       0.03109011       0.05186372
Ar      12.09435151      10.08262862      13.99517721      -0.16934717       0.05579745       0.01227887
Ar      12.58313667      16.18525681       5.91342817       0.04000945      -0.03436726      -0.04573286
Ar      12.55071595       2.84356039       0.75423255       0.02967901       0.01013667      -0.04824787
Ar      12.84516216      16.37902888      12.04349702      -0.07469814      -0.02556566       0.00285852
Ar       6.91700657      12.54095847       4.25056027      -0.03193279       0.04900826       0.01366411
Ar       4.93811181      11.95938537      14.03546340       0.00420485      -0.02764095      -0.03766863
Ar       0.19380308      16.93959027      15.32133857       0.07736479       0.08415169       0.00328644
Ar      10.21292740      14.07144528       2.82668591      -0.09153653       0.02742636      -0.00511240
Ar       0.24464784      13.90722296       1.00989376      -0.13234024       0.06971721      -0.01016734
Ar      16.55258879       4.19569504       8.20419972       0.01873470       0.04381321       0.07725761
Ar      10.92518617      11.46041930      11.11123661       0.00905804       0.07078121       0.00943039
Ar      16.01371814       8.71826497      13.55897859       0.01692283      -0.05885301      -0.13474559
Ar       9.31365236      10.34332962       3.87348791      -0.01436646      -0.06598678      -0.09206202
Ar       7.97317691      13.67536908      15.45905438       0.01200264       0.03269212      -0.01010242
Ar      15.13817014       4.82055080      13.76607637      -0.01687361       0.11582592      -0.03866892
Ar       0.17507858      12.61979969       4.19381171      -0.00158603       0.04304810       0.07925371
Ar       7.33488848       8.01590974       1.99327388      -0.00896983       0.02684029       0.03506749
Ar       5.69511645      15.74302203      13.94836566      -0.01936073      -0.10518136       0.12665136
Ar       8.61790066       3.28629001       9.82966373      -0.03912609       0.13007120       0.07779995
Ar      11.72081866      12.79792050      17.27922245       0.00449764      -0.06906815      -0.01102444
Ar       5.51615759      15.68670226       5.78665433       0.00143780       0.11841304      -0.04784581
Ar       1.84423442      15.87392690       5.94313300      -0.02585014      -0.04172078       0.00161369
Ar      14.02604784       1.33464251      14.86250581       0.00016885       0.01205907       0.07618282
Ar      14.13925025       5.19332548       5.82958847      -0.00969910      -0.09894450       0.05265902
Ar       3.94627898      12.59507336       6.16505032      -0.05732017       0.04554739      -0.05834778
Ar       5.79907808       9.80461177      16.35154403       0.13726230      -0.01284450       0.00451584
Ar       3.32379777      11.22820230       2.57632034      -0.03213770       0.03603944      -0.00144175
Ar       3.77737714       1.01455345      16.49799429       0.03972125      -0.04704657      -0.05021801
Ar      16.24177123       1.60093660      11.72209524      -0.10221773      -0.02011977      -0.03452462
Ar      10.40263460      16.85148703      17.14505990       0.05780902       0.03247450      -0.04618327
Ar       9.60258590       5.79933794      11.83690727      -0.11738125       0.07051236       0.00334300
Ar       8.97312756      17.12230477      13.07839150       0.07464841      -0.06649634       0.13265635
Ar      11.39995793      13.50116041      14.11522270       0.01937706      -0.03574596       0.02998156
Ar      14.70196708      12.43756234       6.48678872       0.02404849       0.08542393      -0.02687073
Ar      15.08271399       5.24471032       2.57852395      -0.07027353       0.00039253       0.04738508
Ar      11.47357678       9.23015366       0.98280205      -0.04594772       0.02633815      -0.02046258
