108
Lattice="17.35 0.0 0.0 0.0 17.35 0.0 0.0 0.0 17.35" Properties=species:S:1:pos:R:3:momenta:R:3 pbc="T T T"
Ar       6.18206786       3.41876732       5.54913365       0.01038789      -0.00718771       0.02479393
Ar       7.29275766       6.66786207       4.85711127      -0.05182299       0.03836303      -0.09643278
Ar      11.06370177       6.59948518       3.89052337      -0.01007387       0.09006868       0.03197832
Ar      15.23398703       8.32363450       8.78898525       0.02703986      -0.05663058       0.04239699
Ar       3.55508493       1.58064113       7.03348994       0.08599493      -0.01291197       0.01747583
Ar       2.78431962       2.77944418       3.62030312      -0.08731808       0.06018025      -0.04858933
Ar      16.50502203       3.19579920       2.59432786       0.06012414       0.02551582       0.01405556
Ar      14.70018464       4.78165446       9.49803541      -0.02917065      -0.00343750       0.01987446
Ar       9.83471656       4.68276623       6.57625227       0.07346198       0.08598028      -0.02044925
Ar      15.73220470       1.70909795      17.00612171       0.02971481      -0.02023647      -0.02598026
Ar      12.13008183       7.95495571       7.00557398       0.12658703       0.05230269      -0.07105515
Ar       0.57600633       4.52232167       5.86160703      -0.03939294      -0.12168963       0.01920185
Ar       1.38790278       4.00624587      17.14020590       0.02680867      -0.00811944      -0.11083289
Ar       7.40624470       8.19187765       0.74640458      -0.03297975       0.00938925      -0.09344725
Ar       8.82161430       3.92254876       2.87815464      -0.01281337       0.01340579      -0.07562031
Ar       0.03184080       0.75969150       5.14770041      -0.01243764       0.04091898       0.00075755
Ar       6.66521085      17.06511380       5.45665131      -0.01395362       0.00271459       0.02233588
Ar      12.96246893       3.17467286       3.14865128      -0.00430545      -0.03207517      -0.02502090
Ar       3.96118301       5.13739161       7.59644644      -0.02042967       0.02816809      -0.09569782
Ar       2.94751692       8.30048525       1.47044647      -0.09032699       0.00382361       0.00419234
Ar      14.51461673       5.94366979       5.31355462      -0.00149260      -0.05273867       0.01914847
Ar      15.02979801       0.37310422       9.40816036      -0.07299265       0.03057356       0.03005301
Ar       5.09651301       4.20526469      16.85124306       0.05923045      -0.06920101       0.00753830
Ar       2.90897635       6.26521839       4.01390664      -0.02002384       0.06619414      -0.06061873
Ar      12.48576324      16.99894229       4.04177067      -0.01250271       0.05199425      -0.01054718
Ar       8.85901546       2.67731689      16.45777075       0.07188516       0.03236198       0.03840388
Ar       5.42626223       3.69951149      13.41561753       0.02134815      -0.00256865      -0.02244580
Ar       7.89035339       1.37501958      12.70252318      -0.03695634       0.06360015      -0.05982638
Ar      14.73789169      17.17676232      13.16832362      -0.12067964      -0.07313564       0.11527735
Ar       0.71511803       2.84802209       8.96348429       0.11341701       0.06629291       0.08411378
Ar      10.24001429       5.65497435       0.03664852      -0.04573527       0.07312572       0.03325368
Ar      11.14885370       2.20176806       9.16476434      -0.01796195      -0.05839177      -0.01990558
Ar       8.62338959       8.19756359       8.01201889       0.08474444      -0.03030161       0.00911343
Ar       8.87204671       6.24670584      12.39848665      -0.03547283      -0.02281499       0.02623398
Ar       1.87416896      16.69851669      16.81870543      -0.08058029       0.04214790       0.11513480
Ar       0.87238509       6.26432323       9.32855212       0.02126644       0.00024783      -0.00306043
Ar       1.52213118       5.29386606      14.07413349       0.00083843      -0.01768964      -0.00229543
Ar       2.43355952       1.49035047      14.18388023      -0.02616296       0.03483515       0.01061691
Ar       7.63681324       4.74675127       9.30065838       0.08509894      -0.00989299       0.03165352
Ar       3.88680720       0.84736288      10.58975153      -0.07231054       0.08708441      -0.00502011
Ar       0.14418235       7.94318680       6.08467401       0.07417078      -0.05280829       0.04713783
Ar      11.38614967       5.62786601       9.69505010       0.10630994      -0.08310130       0.03084412
Ar      16.48992731       2.93143728      12.64740740       0.05077373      -0.02255456       0.02751036
Ar       9.81628694       8.08934880      15.24788220       0.04608978       0.13851869       0.01641608
Ar       5.76814422       7.69188923      14.24796497      -0.08802840       0.02249936       0.01099675
Ar      15.96475832       6.42425399      12.15677763       0.08589731      -0.06645528       0.01101964
Ar       2.72210893       9.42996934      15.37646547      -0.08054975       0.03480486       0.01640563
Ar       3.05276590       4.46315745      11.08417796      -0.02756645      -0.06892413       0.04178286
Ar      16.92798879       7.99502952      15.93354204       0.11024825       0.04334535       0.02543053
Ar       0.64092490      17.05813758      11.51219267      -0.02237880      -0.06251178      -0.10500714
Ar      15.01180867       4.84009057      15.57654076      -0.02187824       0.04408417       0.03448758
Ar      12.49351824       2.71600461      12.93998524      -0.03533651       0.00106575      -0.06765082
Ar      14.78808596       2.76848074       6.81554662       0.08374075       0.00779339       0.00769350
Ar       3.22877378      12.11605851      10.45987264       0.01403735       0.05376258      -0.09539242
Ar       1.72392855      10.97673290       4.35044109      -0.06370558      -0.04057794      -0.06227103
Ar      15.60055770      11.14251364       6.59453105       0.07280385      -0.01858071       0.01460880
Ar       5.07856000      11.41527809       0.62572266       0.00469652       0.00123775       0.08161283
Ar       4.88730607      13.35675511       4.51739852      -0.01213724      -0.02472869      -0.06084665
Ar      13.32724615       9.28087559       3.26838473       0.05484964      -0.08504788       0.03663598
Ar       8.42697380      11.03549587       4.89351047       0.01201572       0.10988701       0.00440991
Ar      16.07919674      15.16325763      15.80123972       0.04334545       0.07618694       0.00105186
Ar       7.92350997      14.54082561       3.24621993       0.01251199      -0.07384780       0.10602608
Ar       9.26719558       0.43911102       1.53130155       0.00969494      -0.01616199       0.04239372
Ar      16.96561959       6.94886356       1.91893741      -0.01637733      -0.09989011      -0.00836852
Ar       5.01173380       9.43588365       4.53910377       0.04318930      -0.11557860      -0.06125884
Ar      14.03992354      14.48585145       6.82504092      -0.04537017       0.06246199      -0.00181205
Ar       5.16985034      15.13620318       0.82987605      -0.00313258      -0.01423230      -0.02393590
Ar      11.34172242      11.45530100       7.48913464      -0.02965794      -0.08331485       0.04253014
Ar      17.27814725      14.65385751       4.78962110      -0.04225472       0.03082618      -0.07809166
Ar      10.45066627      11.12347759       1.30353957       0.00691696       0.02196093       0.03181113
Ar       9.76189076       1.29542250       5.45273834      -0.04479371       0.01229006       0.02695715
Ar       8.24397489       0.23192989       9.13525162      -0.07889970       0.00838547      -0.00942741
Ar      11.85934660      12.64678034       4.21524487      -0.15729069      -0.07162109       0.06049300
Ar      16.44330811      13.60861527       9.34944446      -0.09012481      -0.10712559      -0.05816463
Ar       2.25872713      13.34065156       7.12294453      -0.02101234      -0.03178629       0.08889313
Ar       6.37955806      11.98094438       8.23354176      -0.10875569      -0.04285365      -0.00886198
Ar      10.93076263      14.72255635       0.84694965       0.00019806       0.08653260      -0.08436363
Ar      12.32301798       1.57472676      16.27077054       0.00113083      -0.02102468       0.03644352
Ar      13.52936306       5.73758503       1.28423341       0.14040750      -0.03040378       0.00121863
Ar       9.65028609      14.70200948       7.12591349      -0.02975675       0.07954362       0.00865511
Ar       3.17576196      16.58409765       4.55429995      -0.14187504      -0.01981153       0.08259319
Ar       1.11194929      16.61494250       8.08156929       0.00634040       0.05216034      -0.00814829
Ar       5.62915448       0.88850884      15.63481705       0.00746520      -0.04708695      -0.04363843
Ar       1.90305230      14.11289590       2.07161828      -0.01911097       0.08331137       0.00553674
Ar       2.47241177       8.39527676      12.09555521      -0.03830815      -0.08570731      -0.01119316
Ar       3.89328191       8.79878271       7.96079750       0.01925007      -0.02376215      -0.00834451
Ar      11.59617297       9.17507403      10.66988478      -0.00352470       0.06888923      -0.06277884
Ar       0.71314345      10.45597114       8.94273625       0.07579124       0.03502122       0.02182153
Ar      15.68532491      10.37509476      11.83449623       0.14515662       0.03284642       0.05071731
Ar       3.61991879      15.67819098      13.72014071       0.00991761      -0.05407661       0.02199804
Ar      12.87462624       7.79476782      13.50643725       0.03608415       0.04059928       0.00025348
Ar      13.18802218       9.29385846      17.12455120       0.01015843       0.09771921       0.03510150
Ar      15.12174490      11.76704267      15.36111880       0.02945631      -0.05646661       0.01463862
Ar       2.80650228      13.28013368      16.11478101      -0.03517436      -0.04240906       0.02758347
Ar       0.30103927      13.88073737      12.74471387      -0.07398589      -0.05323272       0.05169051
Ar      13.18828035      13.33663372      11.66862252      -0.08145686      -0.05908603      -0.07291667
Ar       8.12344410       9.70554317      12.16636886      -0.03821411      -0.00133143      -0.06071202
Ar       8.32467227      12.30736921      16.08156782      -0.01167084      -0.00700223      -0.09696199
Ar      12.68912424      15.22595750      15.09132664       0.04377609       0.04540305      -0.00323644
Ar       5.77635802       1.02805656       2.31618463       0.07494792       0.02572322       0.04425232
Ar      10.39263540      15.94097581      11.99767437       0.00369619       0.07894885      -0.03165631
Ar       8.85188028      16.34115580      15.26037750       0.05042030      -0.02214459       0.02034580
Ar       5.55490111       7.32757912      10.55205369       0.00144097      -0.02080045      -0.02946059
Ar       6.70027679      14.52645096      12.12031818      -0.00848524      -0.03161309      -0.05319067
Ar       4.86633432      15.18819645       8.57571015       0.00528277      -0.00254054      -0.01701262
Ar       9.39411687      12.27293882      10.43107854      -0.01187254       0.02115031       0.14925255
Ar      11.31134968      11.79388803      13.73872385       0.04266956      -0.01749866      -0.01904076
Ar      17.16991509      10.79053826       1.21536364      -0.00224812      -0.03952354      -0.00626520
