108
Lattice="17.35 0.0 0.0 0.0 17.35 0.0 0.0 0.0 17.35" Properties=species:S:1:pos:R:3:momenta:R:3 pbc="T T T"
Ar       1.77687072      10.81430666       5.75255553       0.04545384       0.04086451       0.05136991
Ar       2.29000111       0.15026583       7.92087474       0.01230254      -0.03620552       0.03445178
Ar       3.43544829      11.52117588       9.44674931       0.12565037      -0.06007869       0.00086078
Ar       9.89829082       2.52121561       4.71113820      -0.01168585      -0.00940476      -0.03795567
Ar       5.13413730      16.88525539      13.14763700       0.04310613       0.03753384       0.02062880
Ar      16.49231513      14.24256378      15.23232651       0.07179762       0.00327188      -0.00851092
Ar       0.45213870      16.21117724       0.99150837       0.06130226      -0.07969481       0.03370107
Ar      14.37561215       4.96620195      10.77761684       0.06054321       0.08430483       0.05326126
Ar      12.37441221       2.69845864      14.14975267       0.01776901       0.03937890      -0.05229433
Ar      12.07059134       6.04707392       1.82427366       0.09904292       0.06410946      -0.03185928
Ar       3.81851165       6.01239051       9.54633059      -0.00713813      -0.03293845       0.01552917
Ar      15.67792115      11.77287810       6.56114925      -0.12053785       0.03601508      -0.01236886
Ar       0.61795465       4.31371248      10.72855519      -0.06978618      -0.00473921      -0.00041882
Ar       2.07833167       7.40791317       5.28164775       0.06819944       0.08213056      -0.01632287
Ar       5.44244622       1.90267441       9.16476268      -0.02386023       0.04706712      -0.01686285
Ar       5.13947959      12.08398926      15.78587048       0.12388792       0.04480887      -0.05993328
Ar      15.09555654       0.94101385      15.71463029       0.10368722      -0.00114282      -0.03006355
Ar       1.45590738       2.01873206       0.53983450      -0.05719595      -0.01648339      -0.05343175
Ar       3.45665959       3.63029962       6.87704310       0.01590278       0.05274974       0.04328824
Ar      12.99526720      10.54785759       4.54538660      -0.05308209      -0.03258398       0.05174386
Ar      10.73376504       4.93154302       8.15923957       0.04670125      -0.11801440       0.06318371
Ar       6.04670908       9.27012014       9.00412902      -0.09914737      -0.07580382       0.01478064
Ar       7.52069020       5.65680433       9.80845453       0.03607471       0.00859266      -0.05720441
Ar      10.98440178      11.32598303      12.00767885      -0.06871040       0.02212843      -0.03623824
Ar       7.28944052       7.82805978      17.27465310       0.00333293      -0.01844331      -0.03360540
Ar       1.64565518       4.89658306      15.49526516      -0.02352208       0.06126933      -0.04943754
Ar      10.30165781      14.20367248       0.54313610      -0.09179544       0.00536950       0.00334600
Ar       8.84038251      10.64558879       0.25260006       0.01359235      -0.02472511      -0.06916675
Ar      14.49534369      15.32901845       9.20888272       0.01751427       0.05579243       0.01276594
Ar      10.72022328      14.54460659      10.00914964       0.02221071       0.01074700       0.09102102
Ar       4.12818804      16.83445940       2.88284391       0.03637926       0.04153057      -0.05648889
Ar      11.65178741       1.35298331       0.33163449      -0.03932189      -0.03425774      -0.00165339
Ar       5.44725196      11.53475948       6.01778662      -0.02919234       0.04447232       0.04376987
Ar      10.08333098       7.17062499      12.16612517      -0.01768438      -0.03117794       0.01310559
Ar       3.61947972      10.43313966      12.79797172      -0.00984299      -0.00206298      -0.11529301
Ar       9.50039866      13.93634448      13.98376491       0.04628963       0.01504383       0.10724054
Ar       4.31978709       3.60332835      12.49108562      -0.11220238      -0.09022416       0.02357409
Ar      10.56083020       4.33741928      16.69825890      -0.03450795      -0.08090839       0.07006637
Ar      13.04150677       1.86697585       9.31346108       0.01389709      -0.00701484       0.00839913
Ar       2.07115707       0.83479555      11.41814100      -0.00844612      -0.04290276       0.08371928
Ar       3.91663024      15.32454283      16.87013042       0.02513035       0.01961681      -0.05214769
Ar       4.52901172      15.13586589       9.32110153      -0.00962418       0.07228864       0.01527180
Ar       6.75366947      12.81548701      11.93313084      -0.04084704       0.01927627      -0.03460872
Ar       0.99419816       1.12748109       4.69915864      -0.08928520       0.00115483       0.03484442
Ar      17.31443102      11.06851662      12.28357892      -0.01415878       0.01110155      -0.06261857
Ar      13.99687653      14.91279476       0.80019549      -0.03113031       0.03277015      -0.00267661
Ar       8.21127770      10.13487714      14.05808495       0.02741370      -0.02296875       0.02113659
Ar       6.62546678       6.39170052      13.95970577       0.02718412       0.07865276      -0.02872054
Ar       2.48582553      13.59630215      12.45292965      -0.00181797      -0.03820439      -0.01409766
Ar       2.96974916      14.08208715       6.09847600      -0.03056869       0.04024576      -0.04919168
Ar       6.64434071       8.22022003       5.92052467      -0.02320213      -0.03806958      -0.04448783
Ar      13.26688200       6.21226935      14.27516203      -0.02397354      -0.06642086      -0.08076839
Ar       1.21655352       9.33055527       1.61519946      -0.06683978      -0.04905947       0.03455697
Ar      16.63181491       8.81547330      14.92666998      -0.07457550      -0.06349880      -0.08589310
Ar       4.75172865       1.77008960      16.41382035      -0.09640079      -0.01905223       0.09802806
Ar       6.64713839       0.92222658       5.37989615      -0.00769127      -0.05561289       0.08667490
Ar       1.92970432       5.91495006       1.58753564       0.02531186       0.04696900       0.01520444
Ar      16.26021685       1.83020350       7.71116197       0.02916092       0.04905469      -0.07563801
Ar      16.29808121       3.78878352      14.20818237       0.00974521       0.04553659       0.04188944
Ar       6.67709836      15.00850904       4.88092806      -0.00444854      -0.09142318       0.04995666
Ar      15.17457906       1.56890760      11.82386055       0.08913443      -0.05146680      -0.03222150
Ar      11.82734197      12.80988943       7.12818744      -0.06960506      -0.02294225       0.03512057
Ar      13.50056116      17.22207014       6.01214458      -0.07652707       0.01364487      -0.01807365
Ar      12.39438531       9.43520376       1.28156945       0.09226260      -0.01168345      -0.13104822
Ar      16.23868746       5.21850719       7.22144217      -0.08984705       0.01402175       0.03405999
Ar       9.67520644      15.99762177       6.88810362       0.01946942       0.01078095       0.04888981
Ar       3.82400809       3.13881645       3.16399940       0.00672051       0.03014379      -0.05381507
Ar       7.70639112       1.18493304       2.13052864      -0.05049943      -0.00479116       0.00692609
Ar       4.99963989      10.11748133       2.80165973      -0.03920582       0.01162722       0.14401571
Ar      14.95659522      11.26308126       0.01882621       0.07514931      -0.04927856      -0.00741204
Ar       8.33799822       2.28070162      14.53892475       0.01288021      -0.00080433       0.00378442
Ar       6.86042353       4.46338675       6.05222203       0.01723247      -0.09442221       0.05212763
Ar      16.55799828      15.69431077      11.88203872       0.06299534      -0.00479753      -0.05066556
Ar       9.00967197      11.45828458       5.00286339       0.11094128      -0.02587354      -0.09619081
Ar      10.53930001       7.85609908      16.30173903       0.05191497       0.03786711       0.04288368
Ar       1.52388095       7.79112460      12.14422112       0.10653924      -0.07178150       0.05521534
Ar       2.98766570      12.98598475       2.56789360      -0.00115368       0.02638184       0.05251970
Ar      11.51853168      17.24961843      12.30609699      -0.01962126       0.02818511      -0.02225339
Ar       1.41124900      11.70998874      16.36640520       0.00251210       0.03212338      -0.08807311
Ar      16.70164776      15.11721762       5.68577274       0.00894867       0.10150621       0.02949785
Ar      15.54998458       7.51845239       0.66225915      -0.04131646       0.08378436       0.04594985
Ar      10.19703896       3.23029812      11.52140510      -0.10220191       0.01486038       0.08919352
Ar       8.67994420       1.90570048       8.24466223       0.03313557       0.07139934      -0.05011581
Ar      16.09308006       7.92989836       4.12935244      -0.09136880       0.04948943      -0.02936234
Ar      10.40292744       8.88103310       7.64866717       0.06025853      -0.10000941       0.08823758
Ar      11.45702082      11.60136221      15.52722525      -0.01486194       0.08100874       0.01635315
Ar      14.14848911       4.07256808      17.13018770      -0.10133412       0.06436213       0.06073333
Ar      13.50422461      14.21574913       4.22608122      -0.02185821      -0.02602132      -0.05720306
Ar       7.46018747       4.57995994       1.66826674       0.00096568      -0.02464192       0.05299036
Ar       7.48288430      16.46472457      15.84970877      -0.03289207      -0.07915561      -0.03034596
Ar       5.00316998       6.60822810       3.37938301       0.00555350      -0.09935865       0.00969088
Ar      10.64913550      16.42735528       3.04596720       0.09583171      -0.08017683       0.02093477
Ar       3.94743840       7.77565329      15.72216792      -0.02680788       0.02494670       0.03036968
Ar       0.72602369      14.33435006       8.99531616       0.06523699       0.02509539      -0.03037648
Ar      16.64248797       4.19043209       3.01083996       0.01073712       0.07286262      -0.08345780
Ar       1.24821101       8.59068595       8.59422718      -0.04741762      -0.01032134      -0.09247170
Ar       7.85489316      13.37375285       8.08215447      -0.03642433       0.04765157       0.01327595
Ar      14.23944035      11.88493746       9.94830631       0.07713083       0.06616972      -0.10765548
Ar       9.75243360       6.55084982       4.60712574       0.01564333      -0.00534885      -0.07162035
Ar      14.95138086       1.04856547       2.23752567      -0.01941613      -0.02419295      -0.00428312
Ar       1.85031318       0.75931038      14.85301877      -0.03551993      -0.09888928      -0.02210199
Ar       6.94043676      14.08396197       1.29440503      -0.05762810       0.07939922       0.06362568
Ar      13.42127423       8.95695827      11.97628512      -0.02792417      -0.08488331       0.07723433
Ar       8.03536514      16.66491910      11.02512757      -0.00282938       0.01669103      -0.01789152
Ar      13.43854677      13.87396652      13.08363257       0.04305322      -0.01995225       0.04005466
Ar      13.41867422       7.54389470       8.84298232       0.05726780       0.07949218       0.00194477
Ar      16.90013744      12.31281349       3.27775452       0.05387740      -0.01499115       0.00052572
Ar      13.13034488       3.16403376       4.52007049      -0.00549213      -0.04844151       0.01307218
