108
Lattice="17.35 0.0 0.0 0.0 17.35 0.0 0.0 0.0 17.35" Properties=species:S:1:pos:R:3:momenta:R:3 pbc="T T T"
Ar       2.04243995       9.87533388       5.26050868      -0.06039447       0.00340855       0.05628941
Ar       0.76749491      16.61598626       7.23478774       0.00250595      -0.03082950       0.03190280
Ar       4.51721798      12.08976653      10.07612377      -0.02500280      -0.14502945       0.00695657
Ar      11.76728262       2.56928295       4.84996879       0.03454337       0.00598075       0.07088039
Ar       4.16532057      15.96299630      14.37836667       0.02649067       0.10956959       0.07052593
Ar      11.77106909      10.42400964      14.29926608      -0.02378171      -0.06450500      -0.02738973
Ar       1.25923761       0.02215124       2.50596430       0.05598115      -0.06050983       0.03026348
Ar      15.43398999       4.51816219       8.40293855      -0.00567162       0.08475445       0.08815311
Ar      14.11841757       2.26420144      13.26181444      -0.07462644      -0.01907670       0.06457746
Ar      13.29026923       5.59853652       5.42432153       0.01725825      -0.05383602      -0.04755672
Ar       3.32615570       8.65484849       8.91539576       0.14723136      -0.01731254       0.01868071
Ar      15.42394363      11.10645220       6.88445866      -0.00499533      -0.05439578      -0.01542500
Ar       2.39777714       2.78175606       9.70740118       0.00434678       0.01640909       0.04428101
Ar       4.61579289       6.98825222       5.26597728      -0.01504378      -0.01836326       0.02512201
Ar       5.09619607       1.51655703      12.06772125       0.00430734       0.02414856      -0.03352761
Ar       4.90510244       8.80956836      16.79125575      -0.08433042       0.06737197      -0.08165298
Ar      12.63535781       4.97126140       0.45406917      -0.04267822      -0.02850603      -0.05369886
Ar      15.80574365       1.78336987      16.23626491       0.04924470      -0.01240623      -0.01115234
Ar       4.39607145       3.61764294       5.68077435      -0.03799276      -0.03291739      -0.03672226
Ar      13.92449071      12.38491618       4.00954454       0.00454927      -0.05544153       0.01063870
Ar       9.62298231       6.93474138       3.01712012       0.00430865       0.02896825       0.01741633
Ar       8.38134244      12.09480184       8.73732763      -0.02638650       0.10782180       0.00379423
Ar       6.18338221       4.87656170       9.63433986      -0.01983495      -0.06366512      -0.06228306
Ar      11.30057398      10.13507462       9.32389154       0.06057083      -0.06837918      -0.04028742
Ar       6.59614296       5.84250114      13.78120060       0.03197078       0.07742023      -0.11503457
Ar       2.48637320       1.41423323      15.95924954       0.03775845      -0.09571426      -0.09431851
Ar      11.07204886      14.79011742       0.71097799       0.07736078      -0.02003406      -0.09780385
Ar       9.67845542      10.24446667       2.10288326      -0.02187344       0.00655538       0.04073250
Ar      14.66575408      14.57661980       7.24128746      -0.04371004       0.05811781      -0.06908925
Ar      11.34666496      14.68099640      10.66559627      -0.05942058       0.00396291       0.03973836
Ar       5.07126697      17.25862400       4.65687241      -0.14585507       0.06339913      -0.02059870
Ar       9.72569955       3.35618618       2.00438118      -0.04257482       0.07941754       0.03470443
Ar       5.73783013      11.02173398       6.22739684      -0.08698001      -0.01946384       0.01300633
Ar      14.13991363       7.65758276       9.76514269       0.06881245      -0.04759185      -0.00211167
Ar       2.61524970       9.02880040      12.70355643      -0.02521561      -0.00968657      -0.04640939
Ar       8.18063099      10.11018168      15.85211267       0.01064009      -0.03420310       0.09127261
Ar       3.28195038       4.62859352      12.30520919      -0.04317680       0.02988168      -0.04244489
Ar       9.83737823       4.26911002      15.13843527       0.00641570      -0.02598646       0.01414922
Ar      12.53448493       0.49909883       9.31163173       0.09868609       0.09558278       0.02851813
Ar      17.11928146      15.33064638      10.62638102       0.03928102       0.07680176      -0.01150818
Ar       4.26595501      15.67085496       0.71432921       0.07131637      -0.01457356      -0.02046174
Ar       3.30971620      15.44041346      10.96667844      -0.01465538      -0.02014458      -0.00672085
Ar       4.35846572      11.86072882      14.83982890      -0.08118444      -0.02251450       0.00736780
Ar      16.01403918       2.68021597       2.42512578      -0.08394155       0.06165184      -0.00099339
Ar      17.08140126       9.88942205       9.69581058       0.01744797      -0.10330822      -0.00966802
Ar      14.18228087      15.77605951      16.59402150       0.00802858       0.09368201      -0.09856913
Ar       7.93705955      12.09590784      12.71226401       0.05571363      -0.02957737      -0.00496117
Ar       8.94277679       8.28894093      11.44017894       0.02911275      -0.01176249       0.00281042
Ar       1.70316898      12.80365073      12.81339095      -0.03187719       0.07020688       0.02909045
Ar       4.56464070      14.01383406       7.07603863      -0.05281181      -0.00531842       0.08315182
Ar       6.75258378       8.18708071       7.89692154       0.07999864       0.01368938      -0.07589737
Ar      15.51026087       8.85857144      16.98589953      -0.00977547       0.01775041      -0.07606561
Ar       1.31571700      11.44022504      15.74874115       0.03921477      -0.00591076       0.02649448
Ar      15.98277384       9.11313250      13.29349051       0.01493518       0.03228848      -0.01660444
Ar       6.26115994       3.06457900       3.09676266      -0.05395239       0.06713527      -0.01118649
Ar       5.45869189       1.55319664       8.22488475       0.00701761      -0.00341001       0.05756285
Ar       3.45501284       6.63375023       1.78571649      -0.06012761      -0.09282942       0.09676236
Ar      16.01034335       1.63211935      10.01753094      -0.04419253      -0.01171715      -0.07184892
Ar       0.00750739       1.18293889      13.07521579       0.03521117       0.01723436       0.15057250
Ar       8.29225919      13.54898901       5.32240627       0.02186017      -0.01706181       0.02092785
Ar      14.55000519      12.40211041      10.12085006       0.01853834      -0.00854658      -0.11069005
Ar      11.41289685      12.80845208       6.96144349       0.02999557       0.02376592      -0.08493041
Ar      14.93727793       1.46521159       6.21116524       0.02042129       0.04974532       0.02234105
Ar      13.47543456       7.66657601       2.41446500       0.01075437      -0.00175789      -0.02849429
Ar       1.19505451       2.56616699       6.08109504      -0.06420462       0.03183189       0.02701279
Ar       7.92310284      16.26655771       8.27070833      -0.03021562       0.05563604      -0.02755228
Ar       3.00352782       2.88053981       2.08903346      -0.01531080      -0.01433951      -0.01196889
Ar       8.59069795       1.41241824       5.54057544      -0.03331492      -0.04117774       0.02405896
Ar       3.58202029      12.13849262       1.09400959      -0.06877888      -0.09565823       0.01928123
Ar      12.39844156      10.65393922       0.18386217      -0.03424978      -0.01867724      -0.10066364
Ar       4.07579482       4.60131451      16.19329147       0.03610765      -0.01022087       0.04709467
Ar       9.66996215       3.50570081       8.11692152       0.02234058       0.01075305      -0.07654958
Ar      15.22994347      13.03449276      14.14991903      -0.01420521      -0.01184083       0.00771306
Ar      11.18839070      15.60038659       4.28626994       0.06427094       0.07647378      -0.02469281
Ar      10.55102196       7.58579835      16.23742826       0.01504690      -0.08866959       0.00525420
Ar       0.26506962       6.56224579      10.61000073       0.04555335       0.00617347      -0.06909743
Ar       6.84716552      13.66364789       2.11828305      -0.08123361       0.03810848      -0.05606699
Ar      11.31126029       0.78772806      15.96366105       0.06195197      -0.02332075       0.01115882
Ar       1.01334632      14.33923298       1.02053581       0.00978352       0.01773712      -0.03149159
Ar       1.06271574      13.97012826       4.84372481      -0.00172092      -0.09194223       0.02249876
Ar      15.60642223      12.16902409       0.80796441       0.06008342      -0.03385030      -0.01949808
Ar      10.45579616       4.97933856      11.15634501      -0.00266368      -0.05476300       0.02007951
Ar       9.07002319       1.14004344      10.69044715      -0.04535741      -0.00352556       0.01315274
Ar       0.75564521       5.30571141       4.16598138       0.12862367      -0.04476251      -0.08251774
Ar       9.08599235       9.32364516       5.44712462       0.01262615       0.01908070       0.08859470
Ar      11.08444380      14.99326544      14.40513037       0.00527005      -0.00037249       0.05575552
Ar      16.70017457       4.81604233      13.87089923      -0.08020632       0.01175893       0.00064624
Ar      15.44004327      15.41780310       3.83926777       0.00395221       0.03027149      -0.16691370
Ar       7.41319786       5.31089082       0.15856974      -0.03628254      -0.01205243      -0.03521509
Ar       6.37411888       1.53121837      16.94867468       0.00237607       0.00251517       0.02735011
Ar       7.63556734       5.51574344       5.40734263       0.06252920      -0.03581901      -0.04420774
Ar       7.97014009      17.27373673       2.40670280       0.04624198       0.08913488       0.01986800
Ar       1.79725441       7.67168806      16.01466689       0.05936271      -0.03351522      -0.04820187
Ar       1.11173917      12.76786736       8.07465908       0.04968972       0.03170512       0.09525521
Ar      16.57697082       5.50775135       0.25746688       0.05707950       0.03047614       0.07604273
Ar       2.07282246       5.64151440       7.86030026      -0.00891327      -0.03501912       0.02340770
Ar       7.08853956      15.50019431      11.69172642      -0.03821339       0.03774754       0.07749221
Ar      12.86052051       9.03554553       5.81125350       0.05652099       0.02709675       0.09119002
Ar       6.27476008       9.71901098       2.99370448       0.03374774      -0.07776011       0.01801191
Ar      13.27623931       0.63760241       2.52113363      -0.02079699       0.00658750      -0.03288043
Ar       0.23496864      15.57459527      14.73125234      -0.02414442       0.00161560      -0.01850051
Ar       7.81290339      14.33411085      15.40293205      -0.09150928       0.03983781       0.01471686
Ar      13.14566269       6.04832733      13.55611805       0.07859231      -0.02847599       0.02636219
Ar       8.31468772       0.43805301      14.27702302       0.03142405       0.04967935       0.01772116
Ar      14.33126007      16.14549771      13.03144057      -0.11097204       0.06823614       0.08258116
Ar      16.43621889       7.50846653       6.67709091      -0.00382134       0.06049805       0.02346641
Ar      16.38594883       9.38020812       3.46074512      -0.00222194      -0.03507525       0.08321545
Ar      10.48400371       6.74817361       8.01172326      -0.05460405      -0.01255268       0.05445760
