108
Lattice="17.35 0.0 0.0 0.0 17.35 0.0 0.0 0.0 17.35" Properties=species:S:1:pos:R:3:momenta:R:3 pbc="T T T"
Ar      16.29971420       9.72847617       2.65258994       0.00883427       0.00617185      -0.02892846
Ar       4.21565306       3.64186151      10.25252664      -0.02988096      -0.05242525       0.00304751
Ar       7.41429445       1.36965297       7.63279702      -0.07706613      -0.03530344       0.00784037
Ar       0.23129342       2.14595898       4.31742621       0.02063269      -0.03840354       0.08422190
Ar       7.51388795       2.54056168      13.80483352      -0.00469119      -0.00442880       0.07941149
Ar       8.80953916      11.14914117      14.04108452       0.00712530      -0.00285997       0.00896636
Ar      15.59836335       2.11813523       1.37902193      -0.04902046       0.13694991       0.05514783
Ar      14.01485893       1.08740379       8.12927262       0.02097225      -0.06185290      -0.00543200
Ar       6.94234150       7.23229517       8.33588251      -0.00569802      -0.14623405       0.05385517
Ar       0.26419727       6.02139727       4.98193734      -0.01567454      -0.07693694      -0.03266246
Ar       1.22686986      12.47661464       9.33892935       0.02664473       0.05296655      -0.04430037
Ar      15.91382746      14.84046451       7.55295502       0.02441248       0.04839128       0.05615776
Ar       4.03809724       8.71485636       5.97929741      -0.06672426       0.00836393       0.01571852
Ar       0.65171962      10.29520837       5.90446880      -0.06698253       0.00659895      -0.05483881
Ar       4.62085292       7.10288891      11.05324319      -0.06165887       0.04070241       0.01371614
Ar       9.39448843       6.49214598       2.18026523      -0.01840175      -0.10386105       0.03002489
Ar      14.78987392      16.79345977       4.15688691      -0.06490985      -0.03976847      -0.03114736
Ar      12.37031776       8.84434530       5.74362798      -0.07341232       0.04540578       0.05343883
Ar       5.73856747       4.36101470       6.65892255      -0.05749350      -0.01862444       0.06012049
Ar      13.57908890      11.92209493       3.28949570      -0.05275473       0.14090866      -0.01050168
Ar      11.08477972       0.65385068       5.04798825      -0.00479426      -0.05208035      -0.05425628
Ar       6.43208226      10.40830562      10.86728733       0.02160683      -0.02394637      -0.01275413
Ar       1.42973383      12.18529987      14.32979417       0.00322112       0.00035067      -0.06662916
Ar       8.93381522       8.66660781       4.92297894       0.10295395       0.07447468       0.04599161
Ar       9.44084196       3.95592706      16.56629244      -0.02442097       0.00751195       0.13917277
Ar       3.90072708       4.89339345      13.81830900       0.00215721      -0.02267410       0.00038062
Ar       8.59808629       0.62453293      16.77458094      -0.02052655      -0.00512238      -0.05778690
Ar       8.81295184      10.01485690       1.79524595       0.06097154       0.03394200       0.04033974
Ar      12.11000938      15.07243973       9.37733383       0.05473024      -0.00150685       0.02578772
Ar       8.88630015      12.75839028      10.76151481       0.07638428       0.03856689       0.00950306
Ar       7.02961818       6.56832089      14.28889514       0.00847359       0.06720623       0.01698293
Ar      15.18211886      14.09385869      14.82876649      -0.08813894      -0.06037377      -0.00532629
Ar       6.82351197      11.14078647       6.68108952       0.12124838      -0.00287297       0.02776035
Ar      12.74498958       4.21568897       9.57888197      -0.01898337      -0.04223056      -0.07403344
Ar      14.61860136       5.75827898      15.70096094       0.03228813       0.01601562       0.02582060
Ar       9.79290911       8.04417328      15.69548299       0.02646361      -0.01788084      -0.04540224
Ar       1.04159767       6.04949880      15.42745828      -0.00847970       0.02560411       0.00196444
Ar      10.82931362       2.93603521      12.73578845      -0.06315372       0.01247239       0.04572528
Ar      10.53672369       0.87802042       9.37660443       0.14506357       0.11260645      -0.00342241
Ar       3.67521677      17.28997007       9.05777079       0.09191733      -0.02406296       0.01709594
Ar       1.28582886       4.35121320       1.59735499       0.03863170      -0.04676900       0.05332961
Ar       5.98557605      16.26543546       1.75529096       0.06905697       0.05459713       0.03257611
Ar       5.60945197      13.82415737       9.19352752      -0.01233485      -0.05301635       0.10689442
Ar       2.33954857       7.65429086       2.76306167       0.00741871      -0.00789994      -0.03257619
Ar      15.92716459       8.21039080       7.99938464       0.00916796       0.02273587      -0.00692320
Ar      14.20716236      15.04800872       0.96140290       0.10960713       0.00720020      -0.04531411
Ar       3.22414667       8.81403883      13.47595002       0.07253463       0.07087353       0.03492634
Ar       4.49013344       7.42920976      16.94351156       0.10628418       0.02712486      -0.01360750
Ar       3.52791794      14.89006848      12.04146275      -0.08872923       0.00587157      -0.07684636
Ar       6.32217619       0.60178949      11.18700122      -0.04504972      -0.04005489      -0.01444721
Ar       0.88229706       9.40036733      10.54569658      -0.07707569       0.03342666       0.13786164
Ar       3.35065297       1.01599864      13.20641168      -0.01020274       0.01020876      -0.08123984
Ar       4.85452299       5.14064982       3.46838386       0.08035263       0.02161851      -0.07082441
Ar      13.52324982       9.06183242      10.42015531      -0.05122446       0.04464783       0.00953448
Ar       3.07744406      14.71685680       3.20268296      -0.07310895      -0.02416540       0.00908915
Ar       1.89758555       6.61631009       8.09694875      -0.13861260      -0.01783679      -0.02768650
Ar       1.79682010       9.98391011       0.20968273       0.04077704       0.01987738      -0.01704290
Ar      17.17272885      14.49059666      11.74817683       0.08896811      -0.09710177       0.03942469
Ar       1.01088967       2.58218413      14.90868189      -0.13027281       0.06710866      -0.02076740
Ar      10.99071016      11.48777494       8.17358059       0.11361666      -0.12178594      -0.00196604
Ar      14.67501747      12.50003672      10.75862459       0.00864253       0.01270599      -0.04541406
Ar       2.12001429       2.77084192       7.63323677       0.07795854      -0.03064419      -0.02721300
Ar       0.68967645      16.92540970       1.27086183      -0.03714648      -0.07694561      -0.02391315
Ar      14.25159869       2.88485652       4.84010029      -0.02039434      -0.01718148       0.00889049
Ar       0.66626424       5.44263573      11.41386413       0.00725749      -0.03828109      -0.02321363
Ar       9.04562817      15.39515227       7.75493526       0.06648696      -0.05886138      -0.06522871
Ar       3.53971583       1.00924120       3.34635045      -0.08511975       0.03294627      -0.01061855
Ar       7.16524041       2.27845092       3.89770135      -0.01864533      -0.04747612      -0.02692773
Ar       3.70164532      13.68320977      17.12183263       0.05437786      -0.07252012       0.07266224
Ar      15.33539984      10.88411888      16.59537397      -0.01267883      -0.02208906      -0.02033916
Ar       5.98950474       4.15831100      16.51205005      -0.01836849       0.10641607      -0.06912927
Ar      10.31641340       3.70568380       6.69285614      -0.02178054       0.04794734      -0.03854318
Ar      12.32732916      10.00910697      14.26026333      -0.06005601       0.03038703      -0.10012159
Ar      12.39316609      14.45637076       5.78445659      -0.05993993       0.04702158       0.01613364
Ar      11.05889164       3.52551931       2.54215686      -0.02211117      -0.03968338       0.01085483
Ar      13.49417143      17.08694675      12.55592943       0.06374204      -0.00083773      -0.05846515
Ar       6.95932944      12.98362861       3.04767676      -0.04626415      -0.07014422      -0.08297765
Ar       4.62168656      12.16100318      13.89959754       0.10595312      -0.00040384      -0.08575413
Ar       0.94404680      16.04517004      14.74848698       0.03361739       0.01176484      -0.01235697
Ar       9.85536412      15.37055992       2.75958574      -0.02043337       0.01261318       0.06977091
Ar       0.33245881      13.31577434       0.58667130      -0.00078090      -0.02951421      -0.09592483
Ar      16.31120111       3.56503721       8.84434840      -0.11243371      -0.12840737       0.03608959
Ar       9.78962159       8.40067687      10.68967850       0.04776767      -0.11280837       0.04889731
Ar      16.37905240       9.01666040      13.55398064      -0.02475418      -0.03883272      -0.09787361
Ar       9.88129725      11.98793305       4.52084139       0.00154404       0.09726865      -0.03252859
Ar       8.42900851      13.81319218      16.31516062       0.00703754       0.03872202       0.05211062
Ar      14.69279028       4.66678218      12.26176274       0.00048478      -0.01864192      -0.04348326
Ar      17.13130020      13.27095200       4.03524694      -0.09360724       0.02526720       0.02036390
Ar       5.62788677       9.17995360       2.86372854       0.02871881       0.00019524      -0.07047167
Ar       5.73630037      16.02179791      14.84421870      -0.00428335       0.08679304       0.02692259
Ar       8.57710952       3.90438809       9.98017341       0.03386081       0.05446786      -0.00765835
Ar      11.77183021      12.25938940       0.09837759       0.00088987      -0.02038920      -0.06894057
Ar       6.15343913      15.52834708       5.54556830       0.07481007      -0.01155185       0.03771776
Ar       1.77259730      15.83221684       6.24504295       0.03898033      -0.09302296       0.01606974
Ar      14.29793467       2.22420641      15.63663696      -0.00657087      -0.00304949       0.04131750
Ar      13.94477440       5.71775945       6.71046662       0.02928808       0.13543751       0.03869749
Ar       3.27433566      12.66127187       6.28394800       0.00006693       0.01174105      -0.07508884
Ar       6.27276213      10.88576014      16.98068116      -0.01126889       0.03836834       0.06947006
Ar       2.69962153      11.32420317       3.12624139      -0.11473335       0.14473682       0.04766892
Ar       3.65476660       1.13000783      17.05015399       0.05631993       0.04863223      -0.01178713
Ar      17.28903376       1.52746033      11.75670311       0.11791458       0.01094224       0.08059652
Ar      11.85727304      16.33455484      15.77462818      -0.01358322      -0.06372813       0.00369276
Ar      11.90255925       6.57777074      13.33543609       0.06586146      -0.04437964       0.08874606
Ar       9.28538364      16.53469848      12.83525866      -0.07778599      -0.08033504      -0.05741218
Ar      11.81911982      13.64161784      12.98052471      -0.05585365       0.08754070       0.03689489
Ar      14.49343117      11.29004196       7.08288856      -0.00971815       0.04080250       0.05146075
Ar      14.03257060       5.24890246       2.09080890      -0.06139602      -0.00257085       0.04619461
Ar      12.45443994       8.27763711       0.70012799      -0.00491246      -0.01883890      -0.07500337
