108
Lattice="17.35 0.0 0.0 0.0 17.35 0.0 0.0 0.0 17.35" Properties=species:S:1:pos:R:3:momenta:R:3 pbc="T T T"
Ar       4.82085437      11.51560378       6.69396378      -0.01553047      -0.07667572      -0.02816686
Ar       5.63052605       5.96293510       7.66806644       0.02822505       0.06708113       0.01745168
Ar      10.13400859      11.81656164       6.85524130      -0.06763448      -0.01103038       0.00028015
Ar       3.50877967       1.49152720       8.17187987       0.01930968       0.03854459      -0.01022039
Ar       7.30166735       5.89545447      16.87247038      -0.03465324      -0.03340761       0.06289409
Ar       6.89735578       7.95501411      10.26247754      -0.07069473      -0.04356227       0.01007287
Ar      14.26603355       3.57058461      15.50443242       0.11023694       0.00885159      -0.04497118
Ar      15.88118663       4.66590738       6.50766588       0.03340377       0.01304269      -0.07046141
Ar       9.10666884       5.23860928       6.51354585      -0.04428551      -0.13141766       0.03337279
Ar      12.76665579       4.99962079       4.52034532      -0.03683510       0.17600473       0.00100725
Ar       2.37926599      13.12190590       9.04953203       0.00837774      -0.00998406      -0.00775576
Ar      14.64483133      15.07375913      10.29401688       0.03042078      -0.08352362      -0.01188232
Ar       4.43853479       9.77610470       3.57393766      -0.00959280      -0.00787347      -0.02965455
Ar       4.23605625       3.34423894       4.47914725       0.01500426       0.09754544      -0.05911660
Ar       3.66708027       4.68538283      10.38888054       0.06766731      -0.08069053       0.05531457
Ar       4.62628000       4.21472972       0.96433713       0.01071336       0.03732831       0.00882603
Ar       0.23105301       3.26267613       1.43458885      -0.03667065       0.02932391       0.09886459
Ar       9.52506874       5.92308876       2.48755551      -0.06367095      -0.02705479      -0.03933327
Ar       7.56758741       4.71425212      12.63566985      -0.05147641       0.05216354      -0.02169799
Ar       0.82583386       9.70164100       4.70032590       0.00114288       0.03967260      -0.08995346
Ar      11.66032543      17.22151669       3.59858766      -0.12779706       0.02122178      -0.04957173
Ar       6.88104650      14.20663689       8.14646172      -0.02454436       0.04541687       0.03218116
Ar       0.92601906      15.98890576      11.92630680      -0.12212801      -0.01349216      -0.00673208
Ar       4.43245214       8.71728344      16.96571376      -0.04599947      -0.05526930       0.08288779
Ar      11.95845794       3.50487982       1.22373772       0.03831433      -0.04865387       0.04512807
Ar       6.63207623       1.88666125      14.77817222       0.09566688       0.03997383       0.00441165
Ar       8.67770917       2.05579396       0.73305138       0.03109818       0.01455005       0.05914886
Ar      10.73067761      14.70730238      13.47299242      -0.02988174      -0.09732676      -0.00668662
Ar      16.62986263      13.25663768       7.37397677       0.04466632       0.02516230      -0.10702728
Ar       7.68170473      15.67722991      11.71260517       0.04191856      -0.05588416       0.08319334
Ar       4.38552042       4.94333838      14.50554472       0.02162925       0.10602770      -0.03049437
Ar      14.23279897      16.38891714      13.66698178       0.06294736      -0.00751158      -0.12463677
Ar       7.36420979       8.95878664       6.56627788      -0.00128950      -0.00911946       0.01479167
Ar      12.71781259       6.66836828       7.90461758      -0.00265537       0.05647822      -0.00182001
Ar      12.97156853       6.87721856      16.83706732      -0.07582714       0.02106109      -0.06514848
Ar      10.00364923       8.82973890      16.95109950      -0.11359325      -0.04561345      -0.01611795
Ar       2.25518362       5.91220508       7.25959225       0.03405427       0.03108392      -0.03824034
Ar       9.94723553       1.64908072      12.41957077      -0.01330928      -0.05228439       0.10285832
Ar       8.75797979       0.67950057       9.03358898       0.06204442       0.01727323      -0.00317263
Ar       0.29046285       1.77637335      10.31376248      -0.00413879       0.05276582       0.02960894
Ar      15.50545946       6.28742158       2.67486578      -0.05985526      -0.08370437      -0.00592501
Ar      11.39979534      13.31885884       3.90422235       0.05673940      -0.03602551       0.04493051
Ar       4.25316493      15.76446428      10.16423638       0.01376499      -0.01579517       0.04968472
Ar       9.24444719      12.44049641      16.41013786      -0.01573122       0.02515727       0.09625371
Ar      10.70777746       8.55635191       5.69317573      -0.03122731       0.03867364       0.02835379
Ar      16.92893224      16.58234258      16.77285766       0.02121960       0.04040995       0.03792038
Ar       4.21728448       7.83805674      12.58994206       0.06268560       0.08533615      -0.07445021
Ar       1.25957344       7.10218586      15.94903142       0.05211018       0.00871878      -0.06549464
Ar       4.56131897      16.47960559      13.42988716      -0.02681570       0.00723086      -0.01937115
Ar       6.15045002       1.84633881      11.15444324      -0.05297988      -0.00984038      -0.06713804
Ar      13.63851806       2.92162590      12.24871094       0.03441624       0.04696533       0.02797757
Ar       2.92895989       1.65408727      12.46952497      -0.03397741      -0.11256401       0.04393023
Ar       6.14146875       6.39230934       3.89855528      -0.10327433      -0.12075439       0.02550875
Ar      13.78243048      11.08087944       8.31633412       0.04031747       0.05462995       0.03393153
Ar       5.89255368      12.45778260       1.28412281       0.09150643       0.04786841       0.04790190
Ar       3.05226308       9.00558784       8.98052436       0.00835723      -0.07375319       0.09265691
Ar       1.58904476      10.54059414      15.50396344       0.04718268      -0.01394744      -0.05826477
Ar       2.63135762       1.65937670      16.24423318       0.01366697       0.12154408      -0.09881917
Ar      15.19167852       8.00841265       5.56501530       0.01359803      -0.05496467      -0.09231798
Ar      10.47757087       8.96528176       9.48831725      -0.00717876       0.02264047      -0.06911375
Ar      12.84459063      11.66461256      12.01308420       0.01490935      -0.02274008      -0.11549845
Ar       1.74084725      17.19601307       2.76819288       0.00849652      -0.06172925      -0.00389338
Ar       2.17818042       6.71180546       2.54678032      -0.02493138      -0.01167504      -0.08198132
Ar      15.13455287       2.20540750       3.96410552      -0.01667483      -0.04552879      -0.07736407
Ar      15.49585544       5.14961069      10.12943966      -0.01823874      -0.11726168       0.07151563
Ar       5.48186731      11.66519306      10.17314627      -0.08502079      -0.00283219       0.04781642
Ar       5.48331733      15.62541256       3.39473214       0.03491964       0.00498067       0.01607456
Ar       9.59379640      15.36165990       6.24512165      -0.08034510      -0.00342996       0.02124878
Ar       9.00723686      15.66443791       2.27899591      -0.08740963      -0.03775954      -0.08152557
Ar      13.40606780      13.11977052      15.11678272       0.09342262       0.03751769      -0.05447043
Ar       6.51375161       0.43183160       6.36795805       0.05449615      -0.00090395       0.03545168
Ar       9.86159227       4.26963312       9.83597764      -0.00307413       0.01705057       0.04207538
Ar      13.53486171       8.34019068      10.96567071      -0.03589275      -0.00008444       0.02553705
Ar      12.76561568      14.87113415       6.96714294       0.03848104       0.06628319       0.07152338
Ar       8.90822290       2.46797440       4.11314156       0.00235002      -0.01306675       0.01805374
Ar      11.04342753      14.14588511      10.05984306      -0.02296654      -0.01962511       0.00238488
Ar       7.64559518      12.92058878       4.65102670       0.06873957       0.03924333       0.07027004
Ar      16.91500247      13.67783361      14.35190642      -0.10455038      -0.07256409       0.00777135
Ar       2.48927021      11.47814973       1.54713578       0.09515901       0.05641436      -0.00251024
Ar      14.73060473      16.00139428       4.18059485      -0.06060063      -0.03006921       0.01168462
Ar      15.91690951      13.59319095       0.58081211       0.04307972      -0.08805119      -0.05097395
Ar       1.25430489       2.18646839       5.50296753       0.06207683      -0.03504023       0.10180962
Ar       9.10573227      11.42330016      12.12878484      -0.03347294       0.12594505      -0.00003705
Ar      16.64326512      12.30591219      10.82555527       0.02418754       0.13698659       0.06590680
Ar       8.76687934       9.44721059       2.83277152       0.04287337       0.00561152       0.02753511
Ar       2.90744456      12.08093313      12.50926988       0.05606959      -0.03605975      -0.01244565
Ar      14.60595729       6.32231543      13.51032873      -0.03005926      -0.09737539       0.02293214
Ar       1.98071661      13.60983531       4.88366318       0.00277425      -0.07204712      -0.06526185
Ar       7.20283769       9.83473482      14.95833672       0.00692385      -0.04659479      -0.02092381
Ar       7.39229593      15.44505256      16.29483900      -0.10145393      -0.02501894      -0.01624041
Ar      10.29677514       4.63413750      15.01908352       0.02928435      -0.03912411      -0.02759687
Ar      12.58735989      11.99917751       0.96013815       0.09283970      -0.06282976      -0.03125674
Ar       1.15033316      16.25257157       7.08824262       0.06644967      -0.07707906      -0.11981953
Ar      15.26958149       1.03390337       7.99602863       0.03224807       0.01728231      -0.03318885
Ar       0.14654068       4.27490392      13.17970828      -0.05682785      -0.07941933       0.03356021
Ar      11.93014301       1.98474641       6.68720845      -0.01295872      -0.05943941       0.00662458
Ar      16.84421696       8.41263577       8.64274935       0.03263716      -0.02967810      -0.03187195
Ar       0.12814315       8.63597990      12.91300900      -0.05459598       0.07165327       0.10682312
Ar      11.57039237      15.49602217      17.33209618      -0.02006961      -0.02098714       0.03170767
Ar       3.39058503      14.98867208      17.07587634       0.03311665       0.01520736       0.03596316
Ar      12.36456704       0.48480875      10.28508292       0.07800198       0.00192743       0.01990968
Ar      11.62893093       1.20245635      15.64164272       0.03464438       0.06982107      -0.00778908
Ar      10.10250183       7.54158466      12.82284920      -0.02174531       0.13998542       0.01180331
Ar       5.47322904      13.04640766      14.47477029       0.00483311       0.03276060       0.00271841
Ar      12.64211713       9.42633030      14.64734968       0.01752373       0.05088968       0.02659165
Ar      14.94777040      11.50703350       4.49435163       0.01385821       0.08450797      -0.03946108
Ar      15.86808951       9.81764542      16.31094054      -0.05626225       0.03044765       0.07347706
Ar      12.68378019       8.39200289       2.80295770      -0.04640333       0.12547482       0.00775322
