108
Lattice="17.35 0.0 0.0 0.0 17.35 0.0 0.0 0.0 17.35" Properties=species:S:1:pos:R:3:momenta:R:3 pbc="T T T"
Ar       1.94381043      10.67779036       6.64227048       0.01006121      -0.01768948      -0.05660868
Ar       2.32477993      16.95563796       8.14833379       0.03681240       0.06100299      -0.00087356
Ar       3.57175033      10.51832085      10.14373903       0.03533539      -0.00440651       0.09883769
Ar      11.52552942       4.04381192       3.52160808      -0.05759059      -0.00191587       0.08651797
Ar       3.58397205      15.72836595      14.04158119      -0.16446403       0.04683044      -0.02632119
Ar      13.81253793      10.63785644      12.65427312       0.02775374      -0.01425906       0.08357245
Ar       0.54841672      15.48046932       2.81369807      -0.11546617       0.03495419       0.09390526
Ar      14.97029448       4.88771424      10.08334665      -0.00442662      -0.02486869      -0.06332078
Ar      13.96644796       1.99327386      12.83601654       0.07173662      -0.02952432       0.01196119
Ar      15.18208916       4.75929275       3.06026140       0.06131751      -0.00370127      -0.05234764
Ar       4.28977061       6.76675220      10.11517560       0.02293784      -0.05848241       0.01947469
Ar      15.01238766      11.45920734       7.28765720       0.03661470      -0.01654836      -0.07820025
Ar       2.13463078       3.45024213       9.16879406      -0.05000579       0.00664546      -0.01805287
Ar       3.49032207       7.43019479       6.03532388      -0.06291439      -0.04284046      -0.02894027
Ar       4.23785252       0.87841072      11.44263468      -0.01314229       0.06114377      -0.02306778
Ar       5.12609429      12.28239020      16.56397172       0.07930882      -0.01215463      -0.00976454
Ar      12.82124585       5.20215723      -0.00996320      -0.02722501       0.02283887      -0.04715518
Ar      17.33550609       2.16934405       1.99547901       0.03670297      -0.00522841       0.06666104
Ar       3.33949383       3.31795810       5.73483518       0.08787932      -0.06052878       0.06066080
Ar      12.62269551      10.87412465       3.99177186       0.03604713      -0.07591410      -0.01598023
Ar       9.78593835       7.16935627       5.04039738      -0.07132999      -0.05593221       0.01580432
Ar       7.66574612       9.44477509       9.13404405      -0.05178984      -0.05223786       0.09722232
Ar       5.82185512       3.64337540       9.15563958      -0.02965557       0.04185168      -0.01246118
Ar      10.56330981      11.40111644      10.54281134      -0.09394646       0.07998824       0.06357939
Ar       6.26692614       6.64386735      15.86658091      -0.01584849       0.00755503       0.10195080
Ar       3.36791722       1.54912019      15.00043945      -0.03329555      -0.02070974      -0.01527224
Ar      10.94220601      15.99318595       0.07324396      -0.01207172      -0.06154565       0.10896258
Ar       8.31621949      12.18628663       1.23070159      -0.14868389      -0.03366545      -0.05892820
Ar      14.27239813      15.47879592       7.59708193      -0.10476406       0.10334512       0.00117375
Ar      11.17283220      14.98776504      10.39156723      -0.03514140      -0.11482594       0.00191672
Ar       2.94289593      16.88366559       4.64760076       0.00883589      -0.03882603       0.01444905
Ar      10.37658460       2.39762227      17.15261090       0.02541583       0.03360757      -0.04595800
Ar       5.26639159      10.82042490       7.01379398       0.08309634      -0.00089211      -0.00117782
Ar      10.90798830       7.66339085      10.99183382      -0.08356799       0.04063675       0.02482162
Ar       3.36394190       8.42570564      14.25394709       0.08908968       0.09418693      -0.04840073
Ar       8.46748547      13.57594704      15.25829444       0.02074676       0.05919179      -0.03494763
Ar       3.63311710       4.52939526      12.76126483       0.01995621      -0.09173212      -0.05325405
Ar       9.32259695       5.41295159      15.30310208      -0.00620698      -0.05382492      -0.00856939
Ar      12.51578330       0.96317172      10.13980893      -0.04783194       0.02063204      -0.08131081
Ar       0.83066696      16.25644301      11.90756550       0.03640599       0.03496749      -0.04150636
Ar       3.23747750      17.23906884       0.70504573      -0.09566803      -0.00795472      -0.05390962
Ar       4.21385918      14.72090943      10.10311859       0.01860827      -0.06212960      -0.09472133
Ar       6.81199331      11.87033454      11.74560950       0.00975594      -0.06124158      -0.05205150
Ar      16.77504474       0.35997576       5.56191883       0.03050587       0.07335098       0.01649275
Ar      15.35832818       8.89506501      10.02313395       0.01877309       0.11825612       0.04033469
Ar      14.66902024      14.31091937       0.39080648      -0.07465285      -0.06017984       0.04113272
Ar       9.47748812      10.24425472      14.07652407       0.02366940       0.07408471       0.03573135
Ar       7.45219777       7.24085693      12.09390438       0.00350360       0.05732587       0.00576912
Ar       3.08531812      12.55636283      13.45755873      -0.01891684      -0.00907949      -0.01207336
Ar       4.02211412      14.44808750       6.68763526      -0.03359532      -0.01004820      -0.06983293
Ar       6.75555758       7.47986738       6.60903091       0.00013254       0.02635468      -0.02021159
Ar      16.18060880       7.88486836      15.92912534      -0.03792270       0.01130041       0.01544457
Ar       1.47079285       9.76687556       0.37727094       0.02615487       0.00372681      -0.04363078
Ar       0.26304958      10.38395103      12.62909870       0.11908279      -0.01605697       0.02242577
Ar       6.26547182       3.01819298      16.94590610      -0.02381352       0.08646005      -0.07341380
Ar       6.00943888       0.17823485       7.15739277      -0.13863698       0.05305035       0.03067597
Ar       3.56696955       7.15111931       2.23313255      -0.01134231      -0.05802839       0.01035483
Ar      15.87415279       1.17368551       8.81387742       0.09536996      -0.02941614      -0.01544776
Ar       0.17310033       2.54745345      12.43076271      -0.06279824      -0.01143418      -0.01451078
Ar       7.59587659      14.46420072       4.58247695      -0.04372069      -0.00092054      -0.06312013
Ar      14.54499300      14.39554393      11.33778668       0.03682958       0.07614770       0.12539188
Ar      11.55649484      13.15581261       6.82842162      -0.02681707       0.07725021      -0.02957135
Ar      13.64981223       1.92307774       5.29344672      -0.00239997       0.00102756       0.01904143
Ar      13.83184092       8.30223400       1.81875701      -0.09095824      -0.06715912      -0.03129750
Ar       0.10313754       5.04709349       5.92585386      -0.07076768       0.04183363      -0.06664677
Ar      10.86708302      16.34443617       7.04532408      -0.00170412       0.07562962       0.02943033
Ar       3.35606707       3.25332041       1.93766250       0.01352299      -0.07135666      -0.01910279
Ar       7.31687730       1.57263717       3.22495846       0.03671536       0.00800298      -0.05602945
Ar       3.53262978      10.39829469       3.59549443       0.08800830      -0.06048582      -0.04799897
Ar      12.22439720      11.96540803       0.10250196       0.02076709      -0.04866463       0.10383669
Ar       6.73485001       3.13486168      13.62918968       0.04611203       0.07657654       0.09763312
Ar       8.94316445       3.45516631       6.42962080      -0.01644292      -0.08500572      -0.05819304
Ar      16.12886386      13.35662681      14.43413330      -0.12708024       0.00610506      -0.06027009
Ar      10.92009202      14.48330638       3.63988827       0.02898305      -0.03501460       0.03043968
Ar      12.06170500       8.46156021      15.83034282       0.03980295      -0.05753266       0.12856307
Ar       0.44755048       6.62782970      12.68314222       0.11609319       0.06895080      -0.03987680
Ar       4.24175963      13.96586569       2.21883814       0.02492732       0.02761166      -0.08955340
Ar      10.59262870       0.22866163      13.40982937      -0.07080264       0.03345031       0.01430372
Ar       1.21305854      13.56880111      17.22943026       0.03546834       0.02704873       0.00579995
Ar       0.43838683      14.17173117       6.19555390      -0.05386749       0.01845878      -0.07962358
Ar      15.61291555      11.07344406       0.19378208       0.03125152       0.04454077      -0.05833566
Ar      10.13320414       3.70772260      12.18058237       0.10246545       0.05810680      -0.09208853
Ar       8.71140881       0.80078377      10.07514217       0.06816322       0.00914080       0.01678188
Ar       0.22829135       8.52323559       3.78288747      -0.03075130       0.02357215      -0.02338774
Ar       8.89383534      11.19924280       4.96819547       0.04608226      -0.06993821       0.00646202
Ar      12.10198786      13.53679577      14.01680655       0.02816659       0.06119801      -0.01804515
Ar      16.21713010       3.86655458      15.91295668      -0.07980300      -0.09129429      -0.05949391
Ar      14.40802964      14.40399573       4.11931282       0.05503236       0.05844241       0.04093261
Ar       9.19107213       6.13630606       1.61630000       0.02543408       0.03330767       0.05362627
Ar       6.69589483      17.21697695      15.28559694       0.09502601      -0.11924814      -0.06111458
Ar       6.29218931       4.95135111       3.95551053      -0.06953211      -0.05152140      -0.06370279
Ar      10.73670974       0.55873245       3.45132787      -0.02626638       0.01690493       0.07447631
Ar       2.82602565       5.08185308      15.99197869      -0.03064108       0.00316048      -0.01466597
Ar       0.62072187      13.11803253      10.16984252      -0.05837164      -0.06203730      -0.02674092
Ar       0.32002854       6.13914154       1.12865660      -0.06204930      -0.03434701       0.07860072
Ar       0.73019890       6.84569268       8.78151097       0.04432189       0.01063867       0.07136869
Ar       7.51143878      13.28768053       8.64225904       0.02033629      -0.00812076      -0.00436495
Ar      11.94385822       9.02773936       8.01334864       0.04964624       0.00150430       0.14020480
Ar       7.21129182       9.12315903       2.45399748       0.08499159      -0.05325822      -0.06798452
Ar      13.76492785       0.94847489       1.32477710       0.10430693       0.02487423       0.01455394
Ar       0.55956160      17.09909265      15.65085886       0.08191938      -0.01253776      -0.03150526
Ar       6.68810975      15.71791443       0.97063195       0.02801595       0.04683897       0.11406079
Ar      14.27064377       5.93926569      13.33674759       0.04242803      -0.05082378       0.08998158
Ar       6.75971197      15.41207603      12.24146848       0.02765271      -0.07615391       0.08881988
Ar      13.87533951      16.64707454      15.30411693      -0.05934432      -0.02359280       0.03972427
Ar      13.60290822       7.42246643       5.28711866      -0.01241607       0.01381644      -0.06537970
Ar      17.04434187      12.11930815       3.35793116      -0.01791641       0.04209098      -0.08370893
Ar      12.11432920       5.49620201       7.72179373       0.08428681       0.05731733       0.03015824
