108
Lattice="17.35 0.0 0.0 0.0 17.35 0.0 0.0 0.0 17.35" Properties=species:S:1:pos:R:3:momenta:R:3 pbc="T T T"
Ar       0.80249201      10.31429813       1.76354160       0.03221588       0.00109628       0.00116702
Ar       2.29948305       1.65965383      10.07508691      -0.05346631       0.13123977      -0.03957826
Ar       3.20387571      15.73632873       9.47116624       0.06257705      -0.02100323      -0.05685090
Ar      13.80360816       0.12790187       6.03671242      -0.10023418      -0.05048838       0.02313671
Ar       6.16301925       2.89813803      13.08280003      -0.01814984       0.00923323       0.01096777
Ar      12.14949704       7.53984034      13.19727206       0.01338878       0.06181050      -0.00020723
Ar      12.70109417       4.88540499       1.24364687      -0.05789103      -0.04504943      -0.01995871
Ar      13.70144327       1.41577373       9.37112997       0.04874650      -0.05192675      -0.01587054
Ar      10.15028321       8.00016271       9.88768832      -0.02530500      -0.07580285      -0.04155050
Ar      14.91616722       5.81275840       4.53812524       0.03339838       0.02946455      -0.02351194
Ar       1.17901796      13.21885489       8.62797335       0.02961623       0.00103365       0.13565675
Ar      16.47013131      16.40565326       8.67626834       0.01205374       0.03674378       0.08061433
Ar       5.84075359       8.24390087       7.42237496      -0.00819442       0.01427275      -0.00955708
Ar       2.62540500       9.94624558       6.52750035       0.03423159      -0.03055716      -0.05959091
Ar       3.87044166       9.01000408      10.92362741      -0.01784065       0.06219316      -0.05120687
Ar       8.97896550       6.79385491       1.06430280       0.04416596      -0.01687838       0.03789785
Ar      12.45090919       1.86443404       3.29110807      -0.01608263       0.05787865       0.08345749
Ar      15.24665775      13.25403388       0.07241489       0.00008326      -0.04549860       0.00881094
Ar       5.16754306       6.65908035       3.85722712       0.06653917      -0.02951849       0.00487134
Ar      11.73349537      14.16205678       1.59688001       0.01396316      -0.00260128       0.02330184
Ar      10.14418169       0.40146338       6.19406736       0.00684319       0.02032381       0.03271156
Ar       7.44884365      10.11905263      10.25520660      -0.00558270       0.05652589       0.02603797
Ar       2.27169846       9.80068535      14.10751800       0.00403354       0.01074214       0.05903502
Ar       9.19539696       8.14729029       6.51600265       0.01067103       0.03167383       0.04816887
Ar       9.92536840       3.19277315      -0.00380830       0.01343290       0.00944230      -0.04788927
Ar       6.60367356       4.17984396       0.73829916      -0.07955733      -0.01378426       0.02261748
Ar       7.16194576       0.59069401       2.11048670      -0.06429011      -0.00646495      -0.06808951
Ar      12.40712498       7.70974550      16.69579183       0.06479076       0.07073775       0.00520277
Ar      12.92636913      14.95494906       9.83323308       0.06066823      -0.09920996       0.01316685
Ar      10.47960442      12.04044531       8.82918618       0.00255713       0.04962913      -0.03913041
Ar       3.73932196       4.72264575       9.64136569       0.09011097       0.00168115      -0.09486528
Ar      13.41491763      14.85426176      14.71351048       0.00058437      -0.04439481       0.02005443
Ar       7.68138330      11.48090657       5.72621215      -0.16571122       0.02864772      -0.03429497
Ar      12.08839022       3.56710890      11.34554332      -0.06797880      -0.07415564       0.07370564
Ar       1.18898971       6.62102992      16.08186126       0.06114393      -0.14827750       0.02065370
Ar       8.80517587       5.90204088      13.74306588       0.02292391       0.05756302      -0.02792865
Ar       0.48128471       6.41361541      12.22444484       0.02763792       0.04854100       0.03164662
Ar       9.52511624       1.90433473      12.91868833      -0.03189412       0.01160270      -0.02426311
Ar      10.53613292       0.15228145       9.57884461      -0.02330031      -0.03891250      -0.00790762
Ar       1.19049417      15.97396443      12.37765413      -0.04969573      -0.03284869      -0.07727958
Ar       2.87831697       3.22978608      17.08872499       0.04929018       0.00439290       0.01838852
Ar       3.62299206      16.81599736      16.08316279      -0.02562341      -0.02963136      -0.12345763
Ar       7.87606558      13.72864168      10.28165677      -0.06812091       0.07588907       0.02406661
Ar       1.15800399       5.01664966       3.25782355      -0.02088170       0.00302785      -0.01450194
Ar       0.14840801      10.02368524      10.73057716      -0.03063897       0.05677370       0.05277268
Ar      15.17635296      16.25695130       3.01161900       0.03957170      -0.02763698       0.04760568
Ar       5.89116231      10.19504194      13.81549716       0.06668715       0.05067308      -0.01218080
Ar       3.90381527       6.21421211      13.68925530       0.04881604       0.01241628      -0.06893622
Ar       4.20770320      13.58138836      15.03267340       0.03013733      -0.13374367       0.06462097
Ar       5.63492584       1.51792863       9.58063712      -0.02284273      -0.06205143       0.05512236
Ar       4.10998164      12.74464361      11.53769738       0.08607015      -0.07576237      -0.07414665
Ar       2.40167907       2.01442117      13.56606404      -0.04770212      -0.05556750      -0.06370347
Ar       5.28946692       7.37031159      17.24518794       0.06701189       0.06691586      -0.04683672
Ar      14.76732107       7.83545720      10.23708306       0.05886144      -0.02885838      -0.03339020
Ar       3.21346008       0.44091436       2.56670175       0.03128713      -0.00811663       0.04081323
Ar       2.38460916       6.26361024       6.25732147      -0.08314653      -0.00070577       0.08806741
Ar       4.08183764      11.03034250       0.08977677       0.01389833       0.04379201       0.03662708
Ar      16.13411660      13.49632491      11.30684370      -0.02688691       0.07336305      -0.02637029
Ar      16.38895459       3.58310108      16.64894001       0.04330664       0.06952628       0.10814140
Ar      12.23515315      10.47234632       5.97724957      -0.01146431       0.00541956      -0.00993264
Ar      14.67505133      12.20064294       7.95736670       0.01096614       0.08157600      -0.09099098
Ar      16.99139941       4.09044206       7.99471755      -0.13123332      -0.02659097      -0.04343385
Ar      17.23406105       2.30180793       4.67627718      -0.02008612      -0.05092496      -0.01202713
Ar      12.56616079       3.47482840       6.43557251       0.08004070      -0.00355332       0.03558206
Ar       0.43333374       7.24559456       8.86259912      -0.02298822       0.02610246      -0.09550144
Ar       8.88176414      14.79909495       7.00020392       0.01991581      -0.02316544      -0.01961754
Ar       2.95085563       2.57019117       7.02337478       0.06489815      -0.01844994      -0.05341432
Ar       6.02179335      17.19876438       5.99309412      -0.01526513      -0.00925117      -0.00644522
Ar       5.50670318      14.68321360       1.08902646       0.04099877       0.07797140      -0.09440024
Ar      15.78582819       9.34571578      16.57068638      -0.07776062       0.00212474       0.01222893
Ar       5.21871715       3.03810268       4.30574038       0.10092936      -0.02325297      -0.02706856
Ar      10.09522033       4.84989812       8.60044994      -0.03139278      -0.01009980       0.03811418
Ar      13.83391820      10.70207864      12.89252758      -0.07670346       0.02288460       0.04130721
Ar      12.25785675      14.16176454       5.73141553       0.08182452       0.08886045      -0.01909298
Ar       8.72087742       4.64410585       3.82022389      -0.00138052      -0.01529161      -0.02472587
Ar      14.46848982       0.18337884      12.67507731      -0.07057670       0.00073170       0.10141304
Ar       7.80803011      11.53086931       0.90191931      -0.05683735      -0.05721351       0.07140300
Ar      10.09632663      11.98718288      12.82108491      -0.06539565       0.00405835      -0.08778891
Ar       1.09092669      14.72720908       1.90158446       0.03459199      -0.02738937      -0.02627760
Ar       8.65330025      14.55904200       3.17967722      -0.08483182       0.03616719      -0.01299286
Ar       0.38619176      12.60795598      14.99378788      -0.00728549      -0.17210248      -0.04577242
Ar      12.76844016       6.99730529       7.49570337       0.06175991       0.04458671       0.11218855
Ar       6.98640601       6.13100360      10.60483778       0.03600001      -0.10643768       0.06633822
Ar      15.17212007       6.30827782      14.49076327       0.01858028       0.05634610      -0.08936243
Ar      12.70623505      10.49999188       1.90524791      -0.04554937      -0.04226832      -0.03761700
Ar       7.87262570      13.52934518      15.31334054       0.02161988      -0.02016909      -0.06425018
Ar      15.59614552       3.84568060      11.19759572      -0.03175102       0.10099927       0.06043103
Ar      17.10749596      14.24245064       5.45375077      -0.00289898       0.02239373      -0.02953488
Ar       7.67158670       8.96509796       3.33458273      -0.07214519      -0.01809746       0.05709366
Ar       7.39727046       0.48799597      16.08344726       0.06802850       0.01133308      -0.01295649
Ar       6.67906453       4.96518985       6.79772232      -0.01904818       0.01175939       0.04517172
Ar      11.61349017      11.39051298      15.93849496      -0.06407965      -0.00208222       0.04870370
Ar       4.24206436      10.12390059       3.44854986      -0.00280876      -0.03916563      -0.05470908
Ar       2.32714388      16.68556870       6.29266314      -0.04066613      -0.05786956       0.01027724
Ar      13.95575136       0.76597523       0.12759518       0.03334233      -0.05732585       0.01592778
Ar      16.01877238       9.34661208       6.34267722      -0.03881086       0.02661502       0.04395672
Ar       4.89652229      12.68357454       8.00541709      -0.00839988      -0.00483065       0.08390612
Ar       8.84217674       9.10562362      15.46515530       0.06191660      -0.04151209      -0.07937796
Ar       3.49377921      13.50090843       4.80355639      -0.00008056      -0.08210762      -0.03150703
Ar       0.12290395       1.11343071       1.50584990       0.01305772       0.00866960       0.07347929
Ar      16.99293272      -0.00841531      15.32774587       0.02599703      -0.06256846      -0.02584593
Ar      10.92019116       0.15967338      15.95106205      -0.03558896       0.09682712      -0.02122381
Ar      12.96883924       3.14030300      14.70920606       0.07286736       0.03823459       0.04188695
Ar       5.08199033      16.24169520      12.70021270       0.01510920       0.02818723       0.01244532
Ar      10.94826837      15.55308701      12.47402725      -0.01807039      -0.09659668      -0.00344264
Ar      14.95728602      11.72597046       4.06035703       0.01921294       0.17184465      -0.01743270
Ar      15.60914154       6.44361590       1.12626053      -0.00004427       0.06340012      -0.03127201
Ar      11.92231395       7.33101908       3.64134023      -0.00881139       0.03182395       0.10010640
