108
Lattice="17.35 0.0 0.0 0.0 17.35 0.0 0.0 0.0 17.35" Properties=species:S:1:pos:R:3:momenta:R:3 pbc="T T T"
Ar       1.24361326      11.04895050       4.17288773       0.07125903      -0.05438681      -0.05623669
Ar       3.56487395      16.99014483       8.29419871       0.01764719       0.02414643       0.05082537
Ar       4.96754715      12.00607658       9.40234077       0.05518226      -0.07646640       0.05894951
Ar      12.67858863       4.34699846       5.52200446       0.14849474       0.03428012       0.01095517
Ar       2.71248950      16.06698733      14.99907454       0.00823623       0.01634104       0.05098346
Ar      12.69983153       8.98311354      13.71262551      -0.06620440      -0.03339441      -0.01264625
Ar       0.89781557       0.55200743      17.33498843      -0.03257684      -0.11742299       0.00207118
Ar      15.28565718       4.12206949       7.69168120       0.06870692       0.01030711      -0.06899685
Ar      12.63994864       3.10502266      12.51054067      -0.02723182      -0.02129932      -0.03789158
Ar      13.41997755       7.51781594       6.60726604      -0.00837614       0.06764514      -0.08511607
Ar       2.87506309       9.25807747       6.96557498       0.03700977       0.13508124      -0.07713451
Ar      15.42747537      13.61631111       6.01200273      -0.06112541      -0.04303799      -0.02802537
Ar       4.04188402       3.12037984       9.01458702       0.00740597      -0.05228391      -0.00916245
Ar       1.67657642       6.30001175       3.94626626      -0.02629098       0.00341491      -0.00237499
Ar       6.28730380       0.77475624      10.65505158       0.01017263      -0.06120898       0.10262282
Ar       5.33187489       9.74463018      15.36464044       0.02127756       0.05301992      -0.02559839
Ar      13.44771588       3.96462023       1.12486714      -0.08417863       0.08189515      -0.07328440
Ar      15.12122390       2.21181271      15.23776651       0.02140796       0.00612354       0.00969293
Ar       3.84037242       3.95293079       5.44569808       0.08030531       0.05938476      -0.00820946
Ar      12.37043430      13.92259410       2.55863199       0.05646021      -0.04371479      -0.03211900
Ar       8.93513057       4.47999958       3.55458040      -0.00245663      -0.02223621       0.02241371
Ar       8.79106968      11.48415001       8.79353433       0.05466881       0.02550923      -0.00460631
Ar       6.67057062       4.69605690      10.74503591      -0.00023924       0.02039825       0.02204125
Ar       9.86450233       8.10491496      10.12658111       0.01449980       0.06848842      -0.02065351
Ar       6.99135675       3.83700714      14.56719626      -0.01600815       0.03143803      -0.04424946
Ar       2.75827871       3.27438599      15.58746488      -0.06524940      -0.00374856       0.00514484
Ar       9.69796891      15.41888052       0.76934211       0.08854305       0.08477123       0.10370495
Ar       8.50631025       8.61077527       1.59303669      -0.06105988      -0.02359677       0.05448734
Ar      14.28337683      15.00537057       9.19437316      -0.02620638       0.08593962      -0.02263987
Ar      10.82524366      14.74592007      12.78185893      -0.00981446      -0.02603711      -0.04407837
Ar       3.47740818      17.05569054       4.89680881      -0.06442706      -0.11115358      -0.02928872
Ar       9.63762751       1.47793226       2.02592406       0.02780766      -0.01528613       0.11240751
Ar       5.55845994      11.32126833       5.87292393      -0.01594115      -0.03781856      -0.04257370
Ar      13.81095499       7.98777160      10.36178473      -0.01369825       0.00536331       0.00655804
Ar       3.66387221       9.23878622      11.79583668       0.01033931       0.00104348      -0.01543929
Ar       8.93690753       9.28805510      15.12416384       0.02121611       0.04235760       0.03489904
Ar       3.98226548       5.24871313      12.77216920       0.02653254      -0.04421746      -0.01610856
Ar      10.48163144       2.72729251      15.71326361       0.01583618       0.01810143      -0.00211156
Ar      12.24254849       1.01188375       8.07339392       0.00125690      -0.04263412      -0.00933156
Ar       0.03810649      15.96614355      10.16981877       0.08790312      -0.03173535      -0.05264222
Ar       4.57047616      16.69203670       1.72150839      -0.08223996       0.01503385      -0.02004238
Ar       3.99657424      15.10887463      11.24685531      -0.00333495       0.02438894      -0.03649966
Ar       4.76546616      12.79407052      13.97031079      -0.04716408       0.08487112       0.04229605
Ar      15.59336325       2.80007636       4.49775641       0.01427189      -0.02308401       0.02951999
Ar      16.29650360      12.33650185       9.60132822       0.03850147      -0.01780627       0.07690886
Ar      15.45137570      15.72475931       0.03078699      -0.14428976       0.01440645      -0.00191955
Ar       7.69621515      11.24497098      12.30892116      -0.02092303      -0.06254127      -0.03750368
Ar       6.94944520       7.72657476      12.78391030       0.05958197      -0.09258805      -0.09700533
Ar       0.92482630      13.17116536      12.81379506      -0.04905543      -0.10735453      -0.05598786
Ar       7.34853036      14.52693010       7.49056426       0.01951056       0.10945920      -0.06869887
Ar       6.05775197       8.41748264       8.89838672       0.10412741       0.02247160       0.01716683
Ar      15.29223990       7.49570195       0.37887012       0.01573159      -0.04743230       0.13441610
Ar       2.09662421      10.41576439      15.38491897       0.01357920       0.01935031      -0.02069416
Ar      16.37050182       9.65005573      13.75378342      -0.03027184      -0.00311174      -0.03423277
Ar       5.89023032       3.02320479       2.69663329       0.00318990      -0.00262383      -0.03753380
Ar       6.28739629       1.29527819       7.01382997      -0.02920445       0.04052916       0.04769475
Ar       1.09275336       8.71795227       1.20630764       0.03936903      -0.03477209       0.02764058
Ar      15.47923475       1.45437233      10.01833051       0.00147700      -0.01292147      -0.07697767
Ar       2.58331236       1.17213465      12.28681564       0.03539051      -0.03350331       0.01214106
Ar      10.88927847      13.15615550       5.73093439      -0.04385340       0.02543574      -0.01228304
Ar      12.17476447      12.13394299      10.93008115       0.00457962      -0.03698318       0.06497163
Ar      12.19160306      10.53543620       8.01228445       0.02193607      -0.00577320       0.07397631
Ar      15.76964502      17.15250309       6.61365168      -0.09694193      -0.04408512       0.06686845
Ar      12.05174709       6.86460936       2.81980189      -0.00476530      -0.04448400      -0.05302992
Ar       0.94920682       1.86083930       7.38956955       0.12760570       0.03505450       0.09850813
Ar      10.55808184      15.62098950       9.31009042       0.03186709      -0.04651363       0.06237910
Ar       1.93506594       2.33350346       3.23432585      -0.06226144      -0.04569782       0.00465272
Ar       9.73160292       1.20480328       5.76077358      -0.02190050       0.10303823      -0.10635801
Ar       5.08508744      13.37036763       0.11016965       0.09736303       0.01738455       0.09568599
Ar      11.96097776      10.20367068       0.61668370      -0.03572877      -0.00525635       0.09507340
Ar       4.02407213       5.84869930       0.74003036      -0.03656934       0.02684557       0.00326121
Ar      11.82222837       5.06667979       8.97109156       0.00323439      -0.03087725       0.05464916
Ar      14.67413117      13.07754899      14.37424324       0.07408394      -0.00245098       0.07706196
Ar      12.33065881      16.18131902       5.26774194      -0.01648653       0.00074631      -0.02430674
Ar      11.23451249       7.12325797      16.61510307      -0.03756521      -0.03367844       0.06266723
Ar      17.02837886       7.43040573      10.69067629       0.01629997      -0.02297224      -0.02092701
Ar       7.86090825      12.09737731       1.70447797      -0.04655364       0.03418287      -0.06710617
Ar      12.30861417      16.87335930      15.81762043       0.03503451      -0.03092599      -0.06468345
Ar       1.32397828      13.03449936       1.18951557       0.00045668      -0.02713603       0.06657996
Ar       4.11749630      13.73477574       3.59438919      -0.03117429      -0.07696919      -0.04081856
Ar      15.27118686      11.10826428       0.57313481      -0.05746517       0.02832768       0.03770685
Ar      10.21103910       5.87895436      12.92361244      -0.01878907      -0.01070324      -0.00800041
Ar       9.76964967       2.72319341      10.21401138      -0.06760874       0.08015904       0.01277709
Ar      15.63742553       7.56231778       3.93244490       0.03874638      -0.00816897       0.06108589
Ar       5.65795779       6.62297618       3.67213085       0.05237436      -0.07954243       0.09228884
Ar       9.93176050      12.51963052      16.24613973      -0.04658551       0.01891004      -0.02407333
Ar       0.03256316       3.75637118      12.33472891      -0.04712120      -0.12642100      -0.03988892
Ar       0.55373239      15.31923022       3.85798308       0.00645583       0.01213436      -0.00036641
Ar       8.04956428       5.27301502       0.40763997       0.02265165       0.00403283       0.03033785
Ar       7.46380208       0.76911480      16.83335461      -0.04176767       0.08581291      -0.04826865
Ar       7.40487317       4.86571218       7.03470065      -0.03095284      -0.07564500      -0.09372530
Ar       6.82455614      16.48430729       4.63365144      -0.00923040       0.09995395      -0.03147735
Ar       1.95831535       6.87256194      15.12992897       0.00436105       0.04593171      -0.05962728
Ar       2.36320427      13.75345465       7.00503616      -0.04978188       0.02866541       0.08542720
Ar       0.45659128       4.92154249       1.13490621       0.00548420       0.13534493      -0.01336529
Ar       0.95024976       6.19246498       7.29728879      -0.03672829      -0.02462623       0.06938699
Ar       7.73989446      15.02274250      11.67543979       0.01189239       0.13927620       0.03347170
Ar       9.13616873      10.37264102       4.48831318      -0.09627638      -0.02300712      -0.04041203
Ar       4.93650892      10.10486925       1.47793653       0.02634957      -0.05394781       0.01375268
Ar      13.86777715       0.60864562       2.40365085      -0.05678646      -0.05518723      -0.02562383
Ar      16.48934013      16.20133296      13.52838823       0.05845076       0.02886132      -0.01437871
Ar       7.63835176      14.65846592      15.16632467      -0.00728938       0.02876197      -0.06038877
Ar      14.08987181       5.57140582      14.74597628       0.03488394      -0.00106828      -0.04593138
Ar       9.29915514       0.84661872      13.23581546      -0.01505526      -0.04327837      -0.00908095
Ar      13.26266307      17.00950991      12.15788252       0.04394148       0.08346557      -0.07540889
Ar      16.34744868       9.28361008       6.76983367      -0.02655342      -0.03065319      -0.03657687
Ar      13.50917449      11.06992259       4.10911633      -0.03500375       0.04484210       0.02349769
Ar      10.07024306       7.45470940       6.00405786       0.04941169      -0.02725785       0.00211281
