108
Lattice="17.35 0.0 0.0 0.0 17.35 0.0 0.0 0.0 17.35" Properties=species:S:1:pos:R:3:momenta:R:3 pbc="T T T"
Ar       1.93123384       9.89383384       5.44112271      -0.02686448       0.01193986       0.08921637
Ar       0.76998749      16.52773638       7.33020332       0.00169878      -0.03896791       0.03794301
Ar       4.46606174      11.72075419      10.12628507      -0.01354826      -0.13472130       0.03514460
Ar      11.80546302       2.55785250       5.05775370      -0.01030888      -0.02883420       0.08459407
Ar       4.27778656      16.17027771      14.52243132       0.07800954       0.03285481       0.02342202
Ar      11.68902450      10.26321495      14.06267251      -0.04095534      -0.06570476      -0.14963078
Ar       1.36647360      17.23580356       2.64999735       0.03302842      -0.04299408       0.08513167
Ar      15.41308848       4.73728861       8.55948477      -0.00625262       0.06369249       0.03207785
Ar      13.83561041       2.30411998      13.38035418      -0.13685426       0.05384263       0.03485350
Ar      13.37870837       5.50465174       5.32709897       0.05683344      -0.00964899      -0.02992546
Ar       3.67209092       8.64038516       8.96652950       0.12114310      -0.01232245       0.01630216
Ar      15.49319176      11.01043517       6.84741443       0.07186039      -0.00579569      -0.00998996
Ar       2.34549974       2.67878913       9.74962688      -0.04339983      -0.08918694      -0.00302114
Ar       4.51008785       7.04430815       5.32301395      -0.05520182       0.05193050       0.02567136
Ar       5.12774134       1.55998793      11.99427206       0.01895127       0.01339885      -0.02180493
Ar       4.79354681       8.98590804      16.62062430      -0.00599921       0.06270990      -0.04663450
Ar      12.55168890       4.83989984       0.29351815      -0.01721774      -0.07570104      -0.06744938
Ar      15.93682843       1.76087312      16.29757117       0.04909743       0.00032582       0.06370504
Ar       4.24895033       3.54615464       5.70157523      -0.06564548      -0.02553673       0.03762565
Ar      13.87421248      12.21727191       4.00258265      -0.03756347      -0.06824533      -0.02023625
Ar       9.69794285       6.95442197       2.98121184       0.05325953      -0.00185283      -0.04022005
Ar       8.28025979      12.36336604       8.77303549      -0.04773679       0.10357256       0.02491123
Ar       6.13724880       4.73771271       9.48376806      -0.01609420      -0.04074774      -0.05642119
Ar      11.47608686       9.97303528       9.23129162       0.07450000      -0.05048152      -0.03232469
Ar       6.68423717       6.03870275      13.48975894       0.03684720       0.07710262      -0.11490530
Ar       2.54424675       1.21168204      15.77658263       0.00193453      -0.03832018      -0.02892407
Ar      11.23228370      14.72373493       0.51536154       0.05169147      -0.03379072      -0.04552237
Ar       9.60864571      10.34319511       2.19254821      -0.02486983       0.07155872       0.03121754
Ar      14.57281071      14.76617596       7.07066756      -0.02755735       0.09019302      -0.06999604
Ar      11.18737805      14.67854879      10.75464616      -0.06678316      -0.00322458       0.03014064
Ar       4.69371594       0.05710173       4.60926903      -0.15184288       0.05526132      -0.01953843
Ar       9.64431001       3.51328114       2.09242424      -0.01652336       0.04417930       0.03629362
Ar       5.51326201      10.93532791       6.23747158      -0.09363962      -0.03965043      -0.00206566
Ar      14.26200857       7.57566056       9.77742628       0.01956808      -0.00281596       0.02001090
Ar       2.54857060       9.01614428      12.57448419      -0.02755061       0.00072926      -0.05553613
Ar       8.19402980      10.06598620      16.07742356       0.00385841      -0.00355331       0.08700783
Ar       3.19290198       4.81124038      12.32021869      -0.02832720       0.10689060       0.04498669
Ar       9.86831479       4.14719923      15.13543795       0.01459163      -0.07257684      -0.01674707
Ar      12.75222703       0.73704377       9.37110957       0.05625614       0.08813589       0.01851613
Ar      17.16208249      15.51630496      10.61496575      -0.00847103       0.07046699       0.00682583
Ar       4.42834422      15.71001636       0.65025795       0.04188956       0.04947879      -0.03181367
Ar       3.32067905      15.42557558      10.90765985       0.02810738       0.00877447      -0.03881310
Ar       4.42464755      11.86017958      14.78482688       0.09227564       0.02627028      -0.04815562
Ar      15.85586672       2.85799652       2.46645239      -0.04613379       0.07437882       0.03629773
Ar      17.16822486       9.68259047       9.69456148       0.05013503      -0.04181133       0.00268212
Ar      14.24642837      15.98885183      16.42083094       0.04679816       0.06786341      -0.02218223
Ar       8.08349317      11.99178876      12.66778305       0.06077564      -0.04832033      -0.02467289
Ar       8.99811164       8.26993381      11.45527509       0.01708967      -0.00334766       0.00828912
Ar       1.58907061      13.00059148      12.74134607      -0.05603006       0.06774250      -0.06006394
Ar       4.41031084      14.12701458       7.28727809      -0.06259939       0.08332263       0.08423721
Ar       6.97781375       8.15450225       7.80432164       0.08525230      -0.04549021       0.00998394
Ar      15.50224923       8.87547221      16.76871308       0.00218772      -0.00728176      -0.09331648
Ar       1.14272454      11.33031183      15.96066639      -0.13764904      -0.06853889       0.10485316
Ar      16.02663532       9.19200276      13.23954940       0.02006253       0.03024390      -0.02870633
Ar       6.27031434       3.22408952       2.93336300       0.03957767       0.06193874      -0.09796951
Ar       5.49015949       1.50513080       8.37810556       0.01228120      -0.03417183       0.05699616
Ar       3.32659382       6.42034442       2.02282798      -0.01803124      -0.05823389       0.06288761
Ar      15.94270339       1.53211650       9.84771676       0.00913939      -0.05603386      -0.05309173
Ar       0.17508973       1.28007144      13.35772572       0.07974092       0.06398178       0.04730652
Ar       8.32309870      13.51687648       5.36992255      -0.00033579      -0.00793095       0.00960921
Ar      14.57271161      12.39680905       9.90194022       0.00096220       0.00505778      -0.06258188
Ar      11.52540195      12.86108599       6.74725227       0.05474226       0.01311404      -0.07937272
Ar      14.99896560       1.56621738       6.26500120       0.02365463       0.02941293       0.01964250
Ar      13.47112223       7.69202022       2.35255284      -0.01445726       0.01794386      -0.02439447
Ar       0.97240804       2.56339335       6.18475694      -0.10724832      -0.02615048       0.05076807
Ar       7.85630964      16.32520425       8.15845136      -0.02061414      -0.01401826      -0.05209438
Ar       2.93336179       2.89517958       2.02832715      -0.03929690       0.01372837      -0.03744354
Ar       8.44764691       1.29261659       5.60307425      -0.07751445      -0.05004553       0.02110548
Ar       3.48324278      11.83623768       1.19056896      -0.01522026      -0.13401266       0.05890537
Ar      12.37746615      10.64129180       0.04094706       0.00992564       0.00738550      -0.01922636
Ar       4.14779450       4.57851391      16.28388045       0.01456404      -0.01063853       0.02122828
Ar       9.70847712       3.45013977       7.91313787       0.01348575      -0.04391511      -0.07211236
Ar      15.18322945      12.91570392      14.17784609      -0.02434041      -0.07207082       0.01274335
Ar      11.33838901      15.78102234       4.25405171       0.05045064       0.06206764       0.00138297
Ar      10.60541223       7.37317669      16.27723637       0.02352791      -0.06893014       0.02326383
Ar       0.36805086       6.53239961      10.55421020       0.04056061      -0.03968244       0.03171200
Ar       6.69747924      13.71195516       1.98156851      -0.02539022      -0.00921010      -0.04188925
Ar      11.51249775       0.79266514      16.04367470       0.08894162       0.02844954       0.04847521
Ar       0.97391690      14.36842676       0.89087636      -0.02693501       0.00492660      -0.07178543
Ar       1.08828713      13.71765760       4.84547137       0.01482311      -0.10612001      -0.01571281
Ar      15.74016102      12.11425020       0.76108032       0.03821736      -0.01319069      -0.01347059
Ar      10.45793722       4.82805738      11.26523054       0.00317067      -0.06637908       0.05963246
Ar       8.96881573       1.16314237      10.76333173      -0.03463546       0.02210019       0.03722297
Ar       1.04599309       5.26912978       3.93791637       0.07925134      -0.00028742      -0.07099566
Ar       9.15569149       9.42889066       5.70174992       0.05606238       0.06916795       0.09182249
Ar      11.10551498      14.94555678      14.48209232       0.00055175      -0.03792431      -0.00006382
Ar      16.53950908       4.85863396      13.87739132      -0.03963508       0.01912536       0.00560166
Ar      15.46639270      15.54395538       3.39663438       0.01920093       0.05251827      -0.17906395
Ar       7.30214133       5.33036028       0.08803031      -0.04259104       0.02912463      -0.02217287
Ar       6.33325515       1.56308787      17.03005026      -0.03313122       0.02037536       0.03255651
Ar       7.82243703       5.36553487       5.37476212       0.07339353      -0.07752620       0.01667220
Ar       8.11003663       0.08799958       2.41634752       0.06284213       0.03951446      -0.01469404
Ar       1.83037057       7.54642780      15.86425286      -0.03270863      -0.06863138      -0.07063651
Ar       1.24047770      12.84241306       8.36713862       0.04688521       0.02516599       0.13342671
Ar      16.72772795       5.57730997       0.44646416       0.06346216       0.02950311       0.07160764
Ar       2.08336281       5.56501225       7.79481929       0.01925780      -0.02025216      -0.07089983
Ar       6.97713769      15.57640824      11.88424010      -0.04859095       0.02100187       0.07194567
Ar      12.92408591       9.08180953       6.02127193      -0.01363400      -0.00414589       0.06945724
Ar       6.31723071       9.49945700       3.00927453      -0.00107550      -0.09776396      -0.00260394
Ar      13.18774413       0.61474992       2.34441537      -0.05052014      -0.00928640      -0.10692421
Ar       0.21472938      15.53369882      14.75702974       0.00305192      -0.03344265       0.03766353
Ar       7.53460674      14.43556021      15.49192992      -0.12335068       0.03966909       0.04998331
Ar      13.32184248       5.99662090      13.63090305       0.05166003      -0.00839187       0.03220626
Ar       8.37655002       0.56583972      14.27643079       0.02108810       0.05265262      -0.00986710
Ar      14.05649677      16.30574243      13.12831572      -0.09958121       0.04752341      -0.02080971
Ar      16.43822279       7.65494611       6.73517723       0.00870406       0.04421246       0.02334163
Ar      16.36392163       9.31030881       3.63410152      -0.01719682      -0.02029601       0.04765039
Ar      10.37482398       6.82905508       8.11445668      -0.03322553       0.06162485       0.02973613
