108
Lattice="17.35 0.0 0.0 0.0 17.35 0.0 0.0 0.0 17.35" Properties=species:S:1:pos:R:3:momenta:R:3 pbc="T T T"
Ar       5.41631274      11.89613899       6.48504791      -0.00244703      -0.00566280       0.02944925
Ar       5.46965846       5.71082089       7.68371746       0.19270048       0.09623797      -0.00016434
Ar       9.65409865      11.97680737       6.65519512       0.06986551       0.02736173       0.00557864
Ar       3.03782904       3.15712614       8.95556441       0.06969469      -0.01759750      -0.01600836
Ar       6.97941784       6.53999834      17.21699393      -0.03930958      -0.12371680       0.03278191
Ar       6.83664867       8.09115186      10.66505669      -0.01154073      -0.09333051       0.01714169
Ar      15.16039489       2.52001564      15.04159152      -0.03758321      -0.03123832       0.04821840
Ar      15.54323020       3.99150207       6.73882005      -0.00797952      -0.01658285      -0.02813564
Ar       9.63739245       5.86816560       6.26406220      -0.06304473       0.13135210       0.07047868
Ar      12.84962751       5.18466750       4.54461791      -0.07822213       0.00190484      -0.05029754
Ar       3.18378340      13.13497740       8.97897553      -0.03990584       0.01269711       0.01540141
Ar      15.35978935      15.37892390      11.19325467       0.02705323      -0.04821497      -0.04576272
Ar       5.53899997       9.35485881       3.86449501      -0.03063239       0.11548903       0.00908483
Ar       4.86799269       2.60006443       5.75433538       0.17871032      -0.07981041      -0.03813104
Ar       2.79162079       6.55961531      10.12875350       0.01870697      -0.02536911      -0.05239715
Ar       4.26975479       3.11491504       2.43148822       0.02644702       0.07531357      -0.07003031
Ar       1.11788641       4.08692406       0.34103194      -0.06093803      -0.07134943       0.00333623
Ar      10.06947996       6.22133137       2.05953601      -0.02788413       0.03576035       0.07480707
Ar       6.30798128       5.31172430      13.23745991      -0.05452273       0.03196946       0.06577720
Ar       1.68056029       9.67066676       5.36199659       0.00671199       0.01676498      -0.06035033
Ar      12.90421042      16.51145585       3.53825780      -0.01590198      -0.02813999       0.05156849
Ar       6.80845071      14.91187185       8.07968876       0.09297174      -0.08118635       0.02613794
Ar       1.56143460      15.32386968      11.48602736      -0.04105958       0.05209614      -0.00006528
Ar       3.89295616       7.49819543       0.97517777       0.07603976      -0.03331464       0.01616566
Ar      11.91625892       3.08041285       1.81559941       0.06093339       0.04802692      -0.02527004
Ar       6.90757718       1.91057362      14.96048567      -0.00426476       0.00609704      -0.01209612
Ar       7.80576970       2.51905328       0.69424961      -0.04551527      -0.08448928       0.03202995
Ar      11.27429921      15.44186353      12.72410041      -0.06349337       0.04033897      -0.02244887
Ar      17.15141873      12.77014660       6.81705404      -0.08118473       0.00225799       0.06714422
Ar       6.72345400      15.56803452      11.62478061       0.01657654      -0.06815499      -0.01863331
Ar       3.79748069       4.64228406      15.68017274       0.03003491       0.01925275      -0.00164020
Ar      13.99093265      16.31321137      15.14888626      -0.02495830      -0.12530327      -0.05979910
Ar       7.31076418       8.63720534       6.62483159      -0.01922751      -0.07710097       0.09988792
Ar      12.77961087       5.42400887       8.74079161      -0.03493260      -0.01600490       0.05175362
Ar      14.51126453       5.04694383       0.39751417      -0.12388874       0.01588473      -0.00477249
Ar      10.18111472       8.34500389      16.76758899       0.02643057      -0.04030590      -0.01412884
Ar       0.82651957       6.18102291       7.10356919      -0.04390867      -0.01324070      -0.06675894
Ar       9.58094169       1.27671849      12.45419723      -0.02290201       0.00988743       0.00345778
Ar       7.38452581       1.51979165       7.74298938      -0.04153955       0.07477234      -0.09679133
Ar      17.16301140       1.86967993      10.13478452      -0.00047656       0.07957645       0.02031199
Ar      16.91775005       5.86593484       3.41197422       0.02447754       0.10652162      -0.02714766
Ar      10.97068788      13.79730570       3.71281655      -0.02108964       0.07164695       0.03994664
Ar       3.69559032      17.17143007       8.81653749       0.13225485      -0.07467281       0.04792121
Ar      10.26597800      12.57776726      14.73681556       0.03644598       0.01042484       0.03778829
Ar      11.20749779       9.07582585       3.95310839      -0.00859135       0.04739564       0.07194547
Ar       0.32362726       0.02268650      16.84184285      -0.03621905      -0.08196590      -0.06835585
Ar       4.48746009       8.32923645      13.68205696      -0.01797856      -0.06423869       0.04905629
Ar       0.88394029       7.26547744      16.17541438      -0.05568586      -0.01163799       0.04255135
Ar       3.87370926      15.35245546      14.33725328       0.11802429       0.06338852      -0.07417955
Ar       5.83213840       1.84076160      11.09016331      -0.00035333      -0.01844574      -0.05394059
Ar      13.17197757       3.36437196      11.64900154      -0.00679621      -0.04486771      -0.03221934
Ar       2.47092456       1.13941084      13.46336632       0.04399368       0.06950203      -0.10017156
Ar       6.64642619       5.49217963       3.84705526       0.02413951       0.00746667      -0.03007041
Ar      12.59143751      10.65747958       8.16032258       0.03292454      -0.01700048       0.02884774
Ar       5.30042322      11.81408675       0.31035310      -0.02112006      -0.02164285       0.06905380
Ar       4.35600908       9.52576597       9.00474339       0.10453412       0.01465568       0.03147574
Ar       2.35577374      10.29293993      16.00686927       0.05469340      -0.00092864      -0.11053867
Ar       4.10918513       0.54560800      16.76447743      -0.05820792      -0.03338613      -0.03813858
Ar      14.94109007       7.46462070       6.07125134       0.05229045      -0.09248069      -0.02963977
Ar       9.96620728       8.42022448       8.72741930       0.02087832       0.03427277      -0.07642650
Ar      13.19775836      12.56569388      11.48063914       0.00839499       0.03522953      -0.04572077
Ar       1.90793425       0.59279552       2.58336489      -0.07720929       0.02242020      -0.02550628
Ar       3.15391296       5.96793690       4.14365810      -0.01469694       0.09651419      -0.18467628
Ar      15.77998501       2.28324942       2.62992453       0.05248836      -0.02592189       0.03036270
Ar      16.27414713       5.89651060       9.86596209      -0.07509799       0.00649903       0.02539983
Ar       6.27313202      12.02687971      10.32554458      -0.05084774      -0.07129262       0.02735397
Ar       4.57686175      15.24149853       1.65332425      -0.00160833      -0.01923062       0.11309614
Ar      10.04359245      16.61520141       6.09639857      -0.02407048      -0.05628158       0.03312116
Ar       7.74195798      16.81372288       2.42512218      -0.05313243       0.11481937      -0.01897367
Ar      13.83313911      12.74928561      15.44278024       0.00997000       0.02010515      -0.06661296
Ar       5.50577713      16.62358555       5.14888917      -0.00316247      -0.01956020      -0.03161314
Ar       8.27787154       4.21943421      10.30795462      -0.04150748       0.04289576      -0.08500066
Ar      13.75305029       8.93209969      10.80216109      -0.01139936       0.01498811       0.07786866
Ar      12.57735305      14.05994308       7.28639936      -0.04514748       0.06037275      -0.06297590
Ar       8.59440741       2.71406955       4.70575858      -0.05773188      -0.00390200      -0.02533430
Ar      10.12903044      14.27002975       9.57853082       0.02714751      -0.01957133       0.02824405
Ar       7.11583599      13.46022260       3.80389790       0.00029173       0.08774387      -0.00305102
Ar      17.08883129      14.67951610      14.27039826       0.01456707      -0.03407131       0.13763991
Ar      16.50170144      11.61758243       2.52929640       0.04839280      -0.00673225      -0.01183453
Ar      16.17028978      15.07546172       4.28488839      -0.10670421       0.13456804       0.03263071
Ar      14.41692875      14.37007099       1.01985263       0.04077964      -0.11864823       0.04802394
Ar       1.20924653       2.03509498       5.82163480      -0.00261317       0.01700804      -0.04438555
Ar       9.80896096      11.05352297      11.05600517      -0.01181779      -0.01285656       0.00301060
Ar      16.46534454      11.70949563      12.77634385       0.00365441       0.02006965      -0.01544008
Ar       8.36260854      10.13597515       1.98575575       0.00556728      -0.03657692       0.06194867
Ar       3.27998730      12.12036546      12.66219842      -0.05421759      -0.01560743      -0.04815223
Ar      15.05744488       6.44377217      14.04544754       0.07034138      -0.01485344      -0.00746303
Ar       2.30054264      14.86243284       5.29137087       0.06572508       0.01689577       0.02957421
Ar       8.28902776       8.52997652      13.65709412      -0.10986647       0.04853679       0.04403774
Ar       8.05774053      15.89170684      15.65422972       0.06473061       0.02187810       0.07797092
Ar      11.35071304       4.22094545      14.87823831      -0.06515614       0.09914739       0.00904801
Ar      11.70684626      11.21216029       0.77950812      -0.01488171      -0.03347357       0.10971859
Ar       0.21678984      16.52156665       7.49017914       0.05878845      -0.07209257       0.04113866
Ar      14.16667135       0.59448241       6.82621076       0.00612289      -0.00904506      -0.07961033
Ar       0.98333656       4.99462884      13.00021705       0.02566353      -0.03886142       0.06249203
Ar      11.40621146       2.64813398       7.10087971       0.00803334      -0.00860454      -0.00831447
Ar      16.45725043       9.74900927       8.77660971      -0.01411043      -0.14367007      -0.03847012
Ar       1.28794979       9.08756033      12.16228680      -0.06564847       0.04411898      -0.06392156
Ar      10.94325389      15.13901986      17.33038471       0.08476023       0.02345562       0.11866196
Ar       1.52735494      13.77023514       0.08191098       0.08485005       0.08023191      -0.06210369
Ar      12.10312254       0.20497617       9.69267888      -0.02554862       0.01496790       0.04725215
Ar      11.07096533       1.07470565      16.22697224       0.01960436       0.07379528      -0.00237399
Ar      11.16904326       6.44640398      12.18322026       0.00902241      -0.07752884      -0.02366545
Ar       6.39784258      12.20360323      14.22767096      -0.08277148       0.01060695      -0.01500200
Ar      12.76200870       9.75329698      14.01506350       0.00008175       0.03759678      -0.05388654
Ar      13.79425384      11.87445420       4.89128788       0.02681324       0.00913319       0.00491689
Ar      15.79003164       9.81173555      16.60065593      -0.00833918      -0.10054171       0.05298067
Ar      14.58145109       8.69518217       2.25769892      -0.01273214       0.00839051      -0.02699263
