108
Lattice="17.35 0.0 0.0 0.0 17.35 0.0 0.0 0.0 17.35" Properties=species:S:1:pos:R:3:momenta:R:3 pbc="T T T"
Ar      16.06595318       9.51229166       3.60718764       0.01860505      -0.07702138       0.00035809
Ar       4.87165419       3.99089145       9.88355803       0.01910525      -0.10602594       0.03109303
Ar       7.37008447       1.58652581       6.18376923       0.01034463       0.05950895      -0.00093369
Ar       0.90206873       1.84251492       6.60392550      -0.06110023      -0.03892612      -0.01134161
Ar       7.75719408       3.28140603      12.69827313      -0.00160545       0.00030827       0.05154464
Ar       8.31578434      11.00003771      13.93333562      -0.03467163       0.08704087       0.01728657
Ar      16.20285067       1.50939958       0.06581044       0.00037507       0.05225292       0.00483919
Ar      14.38136410       1.89169534       8.20981014       0.04230889       0.00913865      -0.00923136
Ar       9.81562683       8.08122873       8.07969578       0.08411183      -0.00324909       0.02846603
Ar      16.35888101       5.25879823       4.75299875       0.02698919      -0.01326793      -0.03466416
Ar       1.00849322      12.17067359       9.97845110       0.01041968       0.06749383      -0.02716904
Ar      16.42418844      15.58374194       8.69286090       0.01023814       0.01729232      -0.16194631
Ar       6.21014336       8.55614946       5.89799241       0.05683678      -0.00242551       0.01411073
Ar       2.14186459       8.05539564       5.63561418      -0.02684094       0.03521319      -0.06212563
Ar       7.17767464       6.50233089      11.91952482      -0.13195840       0.07323305       0.00115364
Ar      10.49693165       5.43291618       1.00493000      -0.00850256       0.02069131       0.02200053
Ar      16.34509107      14.61921125       5.18666841      -0.00450589       0.07896672       0.00245168
Ar      12.66579575       8.55866259       4.62893862       0.07842257       0.00153993       0.04803779
Ar       6.93213475       5.75584601       7.71242115       0.02496550       0.01457212      -0.02849435
Ar      13.72129657      12.90520410       2.76770537       0.04411096       0.07117683      -0.02114025
Ar      10.55570843       0.17530799       3.98752396      -0.01463782       0.10799189      -0.07847701
Ar       6.14330495       9.92160437      10.05100471       0.05790658       0.03970376       0.07379143
Ar      16.95505936      12.42210744      15.33586900      -0.06161313       0.05861648       0.02050683
Ar       9.50936907       6.27914322       4.63204160       0.05100898      -0.03556980      -0.03687935
Ar      10.70087015       3.66003147      15.19007916       0.01187067       0.05906584      -0.05051034
Ar       4.45640986       3.84666583      13.99206180       0.04844095       0.02795619      -0.02149336
Ar       7.54268157       1.15554544      16.05373977       0.04422136       0.05728109       0.02843141
Ar       7.84701719      11.82598503       0.61954046      -0.00775686       0.03943487       0.07703703
Ar      12.70209572      13.91946872       9.62625776      -0.02021059       0.03329111      -0.03271050
Ar       8.25269835      14.18866027      10.42061642      -0.09781055      -0.00821777       0.05553637
Ar       6.81639307       6.41548521      16.62716304       0.08101273      -0.00620082      -0.06539953
Ar      13.87209718      14.47503117      15.39964737      -0.01511840       0.02095546      -0.01349813
Ar       7.43443312      12.04616419       7.26513557       0.00207077       0.05909270       0.03333284
Ar      12.62085613       5.48591666       8.70545238      -0.03988354      -0.07912226       0.03892303
Ar      13.39947594       5.85829828      16.26268944      -0.04652304       0.00303902       0.04640660
Ar       9.94700951       7.16129120      15.37295981       0.11973388      -0.05421217       0.06077052
Ar      16.90203618       6.65553888       1.18692544      -0.00702609       0.02709696      -0.00843771
Ar      12.01837642       3.07723362      11.39113200       0.07026691      -0.01177295      -0.05548134
Ar      10.64351433       0.44492995       9.23197502      -0.03690106       0.00066549      -0.03925570
Ar       1.73277272       0.55121923       9.83116621      -0.04254531      -0.04414293      -0.09867647
Ar       1.50626740       3.62457153       2.17030589       0.03512487      -0.10132449      -0.05172214
Ar       7.38690150      15.95144415       1.06396204       0.00341949       0.00407829       0.09454646
Ar       4.13544378      14.25211255       9.95294193      -0.05099622      -0.05574982      -0.02397183
Ar       4.56227603       6.97915213       2.99754259      -0.11412438       0.05939067       0.05007452
Ar      15.72597617       8.06780528       6.85192262       0.06134890      -0.00319926       0.00087188
Ar      13.61199902      16.67282501       2.30939120      -0.05009044      -0.07693424       0.05871218
Ar       3.52380148       8.16254850      13.01805873      -0.06755636      -0.09865756       0.06986968
Ar       2.86172733       6.41435776      16.82922846       0.03016176       0.01510782      -0.02026503
Ar       2.25724922      14.03641221      13.15176227       0.08904316      -0.05593480      -0.05023507
Ar       7.43856430       1.12903834       9.86975489      -0.01643188       0.01441407      -0.01231516
Ar      16.51754809       8.61258208      11.38367902       0.06712860       0.00294103      -0.01491011
Ar       1.57691386       1.11548916      13.44572469      -0.04429029       0.03529466       0.06627847
Ar       3.16883751       4.77635469       5.40475017      -0.06999263      -0.05682432      -0.00211326
Ar      13.52031851      10.05983595       9.48231201       0.03198430      -0.01176446      -0.03557455
Ar       3.30299123      14.77463414       2.46182235       0.10222385       0.03780113      -0.02140423
Ar       3.59402974       7.30894111       8.81298288      -0.02129925      -0.01723370      -0.04932846
Ar       1.40181674      11.29998192       0.51965573      -0.03144626       0.02112498       0.06450952
Ar      16.39423894      14.64651626      12.07490323       0.05243428       0.00980013       0.02975959
Ar      15.86385609       3.78753528      14.52004058       0.11874668       0.00317684       0.08280214
Ar      11.34887354      11.58608208       6.86976015      -0.03627003       0.04828462       0.05121151
Ar      14.79905652      11.60468575      12.46882142      -0.05423388       0.00148950      -0.00369283
Ar       4.37079659       1.09339279       7.48046246      -0.04658960      -0.07119831      -0.04901964
Ar       0.06399002       0.59939987       3.23010303      -0.03486453      -0.04253409       0.02973691
Ar      14.81951208       1.74281600       4.89880452       0.00211161      -0.02781528      -0.08217040
Ar       1.67615975       4.70284889      10.81916733      -0.02498656       0.00336147       0.00043364
Ar       9.34215125      14.81284642       5.54857214       0.04899260      -0.07519160       0.01693494
Ar       3.40910198       0.98478439       4.02704836       0.04142969       0.05255832      -0.01018726
Ar       8.62957041       2.99106655       3.02580153      -0.07611784       0.08924053       0.02320454
Ar       4.23355235      15.53889262      16.43662343      -0.00594446      -0.01315229      -0.00461937
Ar      14.22875577      10.78508740      17.14760969       0.01941857      -0.00957458       0.04806105
Ar       5.22061319       3.69538501       2.04749754       0.03710777       0.06570174       0.05490079
Ar      11.12645861       2.73184051       6.37895390       0.03436452       0.01387132      -0.03770352
Ar      12.56844124       9.26568176      14.62050944      -0.09356414      -0.03733348       0.03247761
Ar      13.03429624      16.03978951       6.50107984       0.00958190       0.06860323      -0.11323648
Ar      11.55063182       2.26810188       1.04864682       0.05571561      -0.00126318      -0.03101433
Ar      13.15837136      17.10282575      11.51645636      -0.06272111      -0.04691894      -0.07695523
Ar       6.67720771      13.66515201       3.52859820       0.07778851      -0.02807067      -0.01198016
Ar       5.13119033      12.28904433      14.17208487      -0.01384951      -0.01138193      -0.04282265
Ar       0.00453928      15.83619667      15.13295214       0.01082043       0.08622408       0.01291933
Ar      10.60611086      14.37302511       2.17771634      -0.10058419      -0.02968609      -0.05661051
Ar      16.16685000      14.92554202       0.92266398       0.05304841       0.03343520       0.10697996
Ar      15.78403861       4.83494315       9.45025608       0.01193802      -0.09504198      -0.01465006
Ar       9.96881024      10.94023106      10.75824408      -0.04775199      -0.04225246      -0.03450827
Ar      16.73411815       8.19751488      15.10066662       0.00932469       0.05486048      -0.05466860
Ar       9.54464300      10.89527326       3.78329072      -0.01628461      -0.02541098       0.01275644
Ar       7.57012067      14.93977372      14.97531349      -0.03921038       0.01519531       0.00518316
Ar      13.65781000       6.57934078      12.66806727      -0.00600466      -0.12714646       0.09271837
Ar       1.22400267      12.15114732       4.37325871      -0.04677901      -0.03819772      -0.10134922
Ar       7.55832883       8.46346449       2.17187386      -0.02542377       0.00439722       0.03137417
Ar       5.35456335      16.73317616      12.60914653      -0.00829437      -0.04117724       0.09212134
Ar       9.37581708       4.43810820       9.47971243      -0.02378074      -0.09862352      -0.04256801
Ar      10.83181450      12.85447646      16.06385733      -0.06963112      -0.04485480       0.00699352
Ar       5.73100430      15.16100089       6.89845655      -0.00284473      -0.05515340       0.01587685
Ar       2.33454008      15.16959896       6.94290973      -0.03444183      -0.01970725      -0.04993905
Ar      13.44886200       0.99760998      14.93536978      -0.07787712       0.02148173       0.02747065
Ar      12.67727860       4.94778479       4.80800789       0.04711296       0.03154090       0.10827810
Ar       4.00720110      11.33326199       6.97444546       0.03711100       0.06385907      -0.00151970
Ar       5.06511462       9.70249353      16.47898802       0.04932143       0.17435677      -0.01235429
Ar       4.44090916      10.56298227       2.98861520       0.05120311      -0.02216796       0.01834442
Ar       2.65047548       1.35665644      16.56656034      -0.08937354      -0.00994647      -0.05865575
Ar      15.94098973       2.24679557      11.35049355       0.02438003       0.01429742       0.05886414
Ar      10.91737831      16.31822901      16.55119139      -0.03496749       0.05453609      -0.08381607
Ar      10.50652529       7.81513824      11.71322075       0.03308504      -0.09288853      -0.02244863
Ar       9.57243813       0.24593389      13.52733377       0.00846588      -0.08469528       0.07285080
Ar      11.28495781      14.07190130      12.97584901      -0.01275718      -0.03318131       0.04464776
Ar      14.97578223      12.29544911       7.34084111      -0.02971939       0.04337592      -0.06459030
Ar      14.46404575       4.03597206       2.06866202       0.08450021      -0.11703713       0.03029482
Ar      11.41597463       8.78111301       1.23032487      -0.01149729       0.03295990       0.03264876
