108
Lattice="17.35 0.0 0.0 0.0 17.35 0.0 0.0 0.0 17.35" Properties=species:S:1:pos:R:3:momenta:R:3 pbc="T T T"
Ar       0.60586795       9.14424905       7.09742576       0.00614284      -0.06718743      -0.00243854
Ar       5.93323833       4.55053453       8.11213089       0.00406874       0.04710908      -0.06314277
Ar       6.80991472      16.14475656       7.03485124      -0.07033017      -0.05170615       0.06018901
Ar       2.17191445       2.94117642       9.55328184      -0.02789203      -0.07160852       0.02756061
Ar       8.41387294       4.14119170      15.48761583      -0.03573566      -0.00610299       0.01380273
Ar       7.34823877       9.75726228      10.40824013       0.02287893       0.04367722      -0.01435846
Ar      13.44407262       3.48154490       0.72181538       0.00988509      -0.01758504       0.03188072
Ar      13.59718308       2.43000742       7.83267272       0.07533301      -0.06183688       0.09252035
Ar       8.46616172       7.01613220       8.36207947       0.10128223      -0.00460773       0.08893880
Ar      12.72858433       7.00714664       2.59657945       0.02461851       0.04666649      -0.00681184
Ar       2.38832656      11.31376024      10.06548710       0.00057406       0.07624606      -0.06951830
Ar       0.63544264      15.02905126      10.16238639      -0.05238444       0.03712086       0.02780880
Ar       3.56438698       9.51697414       4.52942446      -0.01058940       0.11438734       0.00881818
Ar       3.41001619       5.30662996       5.71856003      -0.04029518       0.08707357      -0.01519115
Ar       5.39709585       6.75986748      11.97464339      -0.03306024      -0.02222752       0.03166583
Ar       6.54611830       3.97307615       1.61510132      -0.03015097      -0.19788587      -0.01261685
Ar      16.74234074       0.38445778       3.42508034       0.04738110       0.03084725       0.16433996
Ar       9.35929681       9.09415310       2.64847180      -0.05629244      -0.04203340       0.09973574
Ar       7.57658585       3.91385966      11.81962215       0.06473642      -0.09241825       0.03684047
Ar      17.02818586      10.63439224       3.47993659      -0.06861869      -0.03870220       0.01410066
Ar      10.14904448      16.86230635       6.88444481       0.01994940      -0.01895530      -0.08187697
Ar       5.21724353      11.83899979       8.11400332      -0.00011502      -0.02779523      -0.09850798
Ar       1.49797431      15.46357397      14.93362899       0.01551807      -0.01987326      -0.04984630
Ar       5.83551227       7.50536322       1.73869969       0.03979299       0.00744843       0.04400617
Ar       9.72274438       5.65829231       1.23949946       0.04269519       0.01402294       0.02367211
Ar       4.53953185       3.94889872      14.03845975       0.04245093       0.03180826      -0.04716820
Ar       7.64456721      17.02695803      17.19166084      -0.02221170      -0.02782920      -0.13707093
Ar      10.08854310      13.69333553      16.87631056      -0.02809902       0.04616166      -0.02762214
Ar      15.99374525      12.24961365       7.53041161      -0.01480047      -0.08128033       0.06443519
Ar       7.49025621      13.19374925      10.99265364       0.00024788      -0.04730720      -0.07704178
Ar       5.12926293       7.78915481      15.65342316       0.03031267      -0.04211412       0.12993590
Ar      15.52492812      15.27168030      13.97500116       0.02559790      -0.00228847       0.06708248
Ar       7.24237422      10.06888389       5.78095340      -0.03567013       0.06187069       0.05431571
Ar      12.01402410       5.98641442       8.01903813      -0.00397653      -0.00297648      -0.06823613
Ar      11.91197120       5.91558394      15.50423128       0.05905984      -0.06544030      -0.05819508
Ar       8.71573993       7.60684969      15.81430956      -0.02939279       0.04145122       0.06575027
Ar       0.76096932       7.12028622       4.09383592      -0.08238519       0.02630021       0.01374153
Ar      12.23132132       0.41011415      12.21731926       0.05680187       0.05537123       0.02961337
Ar       8.69872632      16.48795648      10.66623751       0.07096842       0.02311323       0.00087812
Ar       0.74523980       1.01543279      12.53167197       0.06005185      -0.08188484      -0.00047803
Ar      13.92755350       3.50161279       4.19080989       0.04702246       0.06635935      -0.01512038
Ar       9.69169896      15.83721259       3.12061711      -0.10838793      -0.01964059       0.00286680
Ar       4.42304012      13.41965283      12.52959820      -0.04434683      -0.09395889       0.03385051
Ar       7.82001981      11.31087878      17.10802428      -0.02464569      -0.07274091       0.04168200
Ar      14.72313815       8.78307335       5.57259208      -0.00516319      -0.00550151       0.02506578
Ar      15.78599293       0.11293844      17.09859350       0.03353900       0.04670568       0.09695641
Ar       2.90271333       9.37885258      13.11190264      -0.00846462       0.03224876       0.09547424
Ar       3.38731080       5.36445691       0.29767768      -0.07437213       0.01743569       0.03405710
Ar       4.27325549      17.20177945      14.97544674       0.04774710      -0.05528099      -0.04210489
Ar       5.11838185       0.83237759      11.26387843       0.00224155      -0.06144147       0.00074887
Ar      16.23598944       4.04033639      10.17224052       0.00317649       0.01598447       0.07515628
Ar       1.55678930       5.20513015      12.86902452      -0.05156688      -0.02788412      -0.09043532
Ar       7.78885152       6.99760972       4.83979863       0.05921651       0.04495542      -0.03141584
Ar      14.55144424       8.23495772       9.20538740       0.02676822      -0.06101138       0.03040321
Ar       2.55144062      12.22843464       1.91578180      -0.09010333      -0.02446720       0.03119056
Ar       4.50356743       8.53368130       8.26302810      -0.07287825       0.02202305      -0.04202719
Ar       1.95794475       8.44107343       0.80359291      -0.03115166      -0.00967783      -0.01539870
Ar       0.94720317       2.67079968      15.71393411       0.07005052       0.03377515      -0.01355168
Ar      15.33479222       7.21044200       0.34377621       0.11671754      -0.03305880      -0.11568041
Ar      11.23841284       8.94973125       5.71115346      -0.06694501       0.05952804      -0.01544392
Ar      13.89053926      12.64363782      10.96640457      -0.01270408       0.02536477       0.00506813
Ar       2.23196427      15.90340689       4.79690915       0.10685745      -0.00270000      -0.02383986
Ar      16.99221530       4.30033440       1.77505463      -0.09740857      -0.00819284       0.01390782
Ar      13.33064734      17.18838750       4.56694820       0.03051539       0.03905643       0.01019926
Ar       1.36160149       6.67097591       9.74125735      -0.06404463       0.01314961       0.05118438
Ar       8.67220057      12.82493889       7.54614119      -0.07867455       0.00667678      -0.12018207
Ar       5.79009350      16.73275533       3.24393292       0.00222024      -0.03218321      -0.03024361
Ar       6.64906154       2.16836112       4.83930536       0.01751839      -0.02165318      -0.01726874
Ar       5.78254135      13.89565308       0.88685021      -0.01872210      -0.03251921       0.03261230
Ar       0.38043634      12.35517114      12.66264565       0.10096028      -0.06016936      -0.12151758
Ar       3.56442871       1.10592150       6.87453951       0.04702800       0.07638649      -0.10356933
Ar       9.33449244       2.92473577       7.79665868      -0.04723690       0.05470885      -0.10284413
Ar      14.11408194       9.67888523      14.01661536       0.02433994      -0.00033288      -0.04432880
Ar      12.71428416      13.39524260       5.87599304       0.02824246      -0.02009592       0.07986209
Ar      10.31345712       1.97681285       2.54137659      -0.07750795       0.06075423      -0.02662438
Ar      11.95722143      15.37499366       9.71060573      -0.06540402      -0.00323369      -0.05577811
Ar       5.44030407      13.47476824       4.99181244       0.02711778      -0.03081776      -0.03383320
Ar       2.86492935      11.44966065      15.89761309      -0.01449569       0.03721993      -0.06758484
Ar       2.66573756      15.69071111       1.01780456      -0.04671355       0.05543192      -0.00760364
Ar      13.17843939      15.07481658       1.78670680      -0.00489975       0.10902183       0.09188531
Ar      16.72025213      14.22191876       0.59160786       0.04179050      -0.03184119       0.07548439
Ar       0.51972072       2.34082528       5.89062202      -0.07482281       0.05039698      -0.05848457
Ar      10.87941489       9.91891336       9.18103479      -0.00322965       0.03793513      -0.02159016
Ar      16.92068938       8.78812357      11.98754263      -0.00385848      -0.02735538      -0.01243964
Ar      13.17478890      10.66153945       2.62060541      -0.00900879       0.03511125       0.02095203
Ar       7.14020161      14.13287770      14.67085446       0.05464225      -0.05858217       0.02654363
Ar      15.34822514       6.33922152      13.90444183      -0.10824495      -0.03650965      -0.16931080
Ar       2.06469049      12.46741562       5.79696178       0.03517759       0.03516120      -0.00622877
Ar       6.01425218      10.79678023      14.00959267       0.00699905       0.07573697      -0.00135020
Ar       8.33928398       0.75043329      13.86764927       0.02299230       0.02479767      -0.08382224
Ar      12.68119691       4.64686553      11.52455062      -0.00714647       0.12872006       0.00161747
Ar      13.12683913      12.80232540      15.42302044      -0.01873363       0.03083610       0.01119657
Ar       3.65593516      14.92839212       8.16096922       0.02019261       0.10272919       0.01488094
Ar      16.20148245      16.23373417       6.99549683       0.01933775      -0.01197462       0.10737797
Ar      14.94790019       2.70373007      13.68045474      -0.01805647      -0.00708184       0.03630542
Ar      10.43469005       4.89174216       4.63355488      -0.03554475       0.04680682      -0.06077168
Ar      16.12936709       5.67671763       7.08347155       0.07712044       0.00812123       0.03202554
Ar       0.46114457       7.98805388      15.21662826      -0.02164078      -0.10163086       0.00019386
Ar       8.63900078      12.38809760       3.21757457      -0.08313750       0.02737925       0.00202510
Ar       3.82688601       1.93933867       0.62490497      -0.01615402      -0.00988401       0.02372690
Ar      15.23546101       0.74989536      10.74827732       0.09380687       0.01887020       0.12056230
Ar      11.91569186       0.17281048      16.05130167       0.08423376       0.04853724       0.09859615
Ar       9.16867981       7.40770250      12.32254141       0.10619744      -0.10465607      -0.00322393
Ar      10.32605428      14.80387147      13.39362624       0.05398362      -0.05203385       0.02259437
Ar      10.06865592      11.18577670      12.86300144       0.01338360       0.06024656       0.04331609
Ar      16.19145041      13.82874154       4.34448048       0.05132135      -0.05205983      -0.04960675
Ar      15.82122569      11.02199751      16.86371119      -0.05474667      -0.10621116      -0.03608052
Ar      11.49982416       9.55983056      16.98037140      -0.09064403       0.02918103      -0.11177513
