108
Lattice="17.35 0.0 0.0 0.0 17.35 0.0 0.0 0.0 17.35" Properties=species:S:1:pos:R:3:momenta:R:3 pbc="T T T"
Ar       4.28630494       3.80022871       4.96265551      -0.08557356      -0.06142146      -0.00046437
Ar       6.90602409       6.83837930       1.87381464      -0.09098868       0.08536397      -0.08725221
Ar      10.56866991       8.91532111       3.69847638      -0.06646144      -0.04692830      -0.00138425
Ar      13.57421162       7.33657955       8.76422718       0.00412209       0.02611442      -0.05860750
Ar       2.41709090       3.64727651       9.13347524       0.02780830      -0.03066455       0.04013606
Ar       3.47878500       4.16386331       1.51926186       0.05771423       0.10699574       0.15890321
Ar      12.67348368       4.52128007      16.46443283       0.01553827      -0.06171267       0.01484780
Ar      15.94851461       4.20328631       9.07921558       0.03952921      -0.03008887      -0.04492162
Ar      11.21490213       4.87500487       5.02431331       0.03776385       0.01744658      -0.06172085
Ar      15.23608267      16.96582215      15.71644471      -0.04842504       0.06491063      -0.03229292
Ar      11.10755214      11.47757303       9.57093195       0.03436643       0.03744243       0.09469193
Ar       0.93657725       2.80845988       5.76508025       0.01676495      -0.02759353       0.03449790
Ar      16.93440629       4.17727093       2.64160395      -0.00400227      -0.01133774       0.00437565
Ar       4.26788861       5.89229987      15.82735439      -0.03277832      -0.01141113       0.07438833
Ar       7.50391749       2.67630255       3.38687603       0.01073027      -0.06915611      -0.04399632
Ar       1.07401557       0.09155841       2.83731322       0.01467004      -0.08864948       0.00029062
Ar       5.30717051       0.48874048       7.52079507       0.00497973      -0.03380880       0.06074523
Ar      10.48537779       2.02413471       1.56829472       0.01187838       0.06273611       0.02460862
Ar       5.69407872       5.73004859       9.20146250       0.02502518      -0.00694133       0.08116993
Ar       2.18897256       8.67365087      16.93189141       0.03569567       0.03286641      -0.05562268
Ar      14.60340425       5.02343598       5.97884293      -0.09199395      -0.03272164      -0.01055532
Ar      17.23777920       0.21233216       9.47643469       0.02207586       0.07062271      -0.01004479
Ar       4.00241011       2.66408787      14.17476616       0.06053462       0.01403662      -0.05164251
Ar       3.19373101       7.52238569       3.65150002       0.06430493      -0.04963163      -0.02049269
Ar      13.24252215      15.87524460       4.02433952      -0.04803176       0.01751354       0.03586540
Ar       7.02790734       3.60721853      16.71668087       0.00296714      -0.01890274      -0.09647861
Ar       7.51219779       4.59903130      13.29263614      -0.03140166      -0.03180063      -0.06758861
Ar       9.69311038       1.68048421      11.91516595      -0.02005675      -0.07967028      -0.07217217
Ar      13.45465553      14.98026795      12.58825786       0.05056654       0.01119607       0.05929540
Ar       3.18283707       0.41960686      10.82197155      -0.01850587       0.16112467       0.09037521
Ar       9.98194062       5.55427520       1.19516807       0.07181122      -0.01418843       0.08695657
Ar      12.01800449       3.00566394       8.15961225       0.03814127      -0.03954529       0.07929972
Ar       6.27386851       8.38379073       6.48778908      -0.00572343       0.00689415      -0.01962433
Ar      10.42783882       6.26902719      14.05468663       0.02552913      -0.00894709      -0.07822476
Ar       1.85081736      14.85445875      16.83735101       0.00788327       0.02192298      -0.02101462
Ar       0.86192932       7.59434875      10.46454743       0.00617424       0.05907457       0.02803134
Ar       0.72676376       5.99452021      14.72256567      -0.06073858       0.04061368      -0.05900836
Ar       0.99688645       1.76104556      15.49946027      -0.07263636       0.03545713      -0.03597703
Ar       7.77408960       3.74058238       6.47311304      -0.02901419       0.01624227      -0.02444603
Ar       6.03751631       2.37086024      10.48561844       0.06037033       0.01289341      -0.01429449
Ar      17.22177489       7.08044212       5.91282974      -0.00639645       0.05104817       0.04009230
Ar      10.37148638       7.93795416       7.30101277       0.01587402       0.06031944      -0.03394881
Ar       0.46570226       3.00984541      12.26756792      -0.05014031       0.03422455      -0.02209852
Ar       8.93643104      13.54441938      16.69425177      -0.04752546       0.01472650       0.02666931
Ar       7.24152920       8.05408900      15.72562333      -0.03042657      -0.07098640       0.00150209
Ar      15.25283672       6.30925018      12.38797128      -0.00644110       0.04904620      -0.03996717
Ar       5.17684765       9.54286113      13.00974772       0.01866358      -0.03521391      -0.07126005
Ar       3.67368520       6.49024125      12.25507823      -0.01568921      -0.03931486      -0.06321340
Ar      15.03674108       7.48990577      16.28571943       0.06314764       0.06339830       0.00321730
Ar      17.23354669      16.91309945      12.92124603      -0.02678241       0.02471361       0.06212851
Ar      11.46002984       1.95818721      15.16607971      -0.03102258      -0.06060510      -0.07662272
Ar      15.24801359       2.99651911      14.45328667      -0.01396441       0.04320580       0.02555210
Ar      13.60121007       2.41319046       4.15982997      -0.00096684       0.06780514      -0.06646717
Ar       7.12771933      11.55906972      10.36923921       0.16798866       0.01497925      -0.08336869
Ar       0.19844467      10.63480865       4.37396833      -0.00632785      -0.03161958       0.01653194
Ar      16.42875423      10.14052813       7.72805717       0.05383841       0.01360684       0.01555566
Ar       5.26016021       9.67179401       1.38530406       0.05162891      -0.02806948      -0.01239853
Ar       5.73224882      13.58860347       2.19385760       0.11465719      -0.02042611       0.03573267
Ar      13.65723641       9.41309313       5.15751467       0.00183905      -0.08736392      -0.01239362
Ar       7.21364303      11.75773222       5.49570197      -0.12324211       0.10314772      -0.03176462
Ar      16.01640635      14.81895426       1.15588138       0.00080264       0.03097395      -0.08859335
Ar       9.61261325      15.48842188       2.92455881      -0.04982825      -0.07613601       0.08244564
Ar       7.33652045      17.11888473      17.10163738      -0.03390520      -0.00066412       0.06989538
Ar      17.21031042       7.82874177       2.28249103      -0.04036139      -0.00798757      -0.03247288
Ar       3.43583021      11.14100130       5.28776926       0.04100836      -0.10865183       0.10900714
Ar      12.51933659      15.91554354       7.75277238       0.09096523      -0.01186958       0.06249967
Ar       4.05047813       0.67754631      17.06156232       0.04042329       0.06399467       0.06467107
Ar      10.49114920      15.06220701      10.66561640       0.02977132      -0.05182525      -0.03755445
Ar      14.64335993      12.79366485       4.52583808      -0.01122311       0.02239013       0.01748600
Ar       8.98985495      10.48767305       0.78598373       0.00121085      -0.07119944      -0.03769935
Ar      10.15073807       1.36086826       5.26001362       0.11100077      -0.00333211       0.00900155
Ar       9.45251423       0.89086813       8.55487167       0.04990844      -0.06191288      -0.06968491
Ar      11.50452603      12.87175592       5.92684976      -0.02267716      -0.05439262       0.03845005
Ar      17.30248566      13.51804894      11.36558810       0.06412517       0.00056608       0.02923047
Ar       0.53622312      13.52769988       7.17699862       0.01403655       0.00467380       0.02351111
Ar       4.92606478      13.43947698       8.53707570      -0.03026027       0.04990782      -0.02571287
Ar      11.75014107      12.44990256       2.20840553      -0.01199943      -0.02849930       0.05696776
Ar      15.05748658       2.03013232       0.98087876       0.00219242      -0.04031511      -0.10140556
Ar      13.48975321       6.88880693       2.37350542       0.01104376       0.03269968      -0.04116646
Ar       8.28933044      15.24182962       7.03953628       0.04958930       0.02340190       0.04096809
Ar       2.57051222      14.93072879       4.74729579       0.05117741       0.03819590       0.02999439
Ar      15.67842665      17.06647857       6.17156017       0.02872698       0.11198366       0.06867288
Ar       6.62846614       0.52828344      13.66426626       0.01733716       0.08910766       0.05191915
Ar       1.82729298      11.85642443       1.68063287       0.02597300       0.03340808       0.00749439
Ar       7.57686346       8.08594620      10.94050932       0.12068222      -0.02816422       0.04340379
Ar       3.10906128       6.98293997       7.21442771      -0.10618013      -0.10042308      -0.05849614
Ar      11.62738289       8.64672565      11.45785192      -0.04451708       0.00278177       0.03477229
Ar       3.33209783      10.33189267       9.24633460      -0.02223756       0.01397701      -0.01147211
Ar       1.46502100       9.21177775      13.42110665       0.04123701       0.07071100       0.01650226
Ar       3.60574135      16.08679433      14.28464803      -0.08848963      -0.01931899       0.12303959
Ar      12.61904534       4.57319174      11.25799444      -0.01295386      -0.03118929       0.01916450
Ar      12.10885521       9.75001903      16.41570437      -0.08977193      -0.01980299       0.11412358
Ar      13.98812156      12.93322093      15.70644640      -0.13222225       0.06603989       0.02847677
Ar       0.25628704      11.86676093      15.72561418       0.01110778      -0.03374241      -0.02142863
Ar       2.74801959      12.71386311      13.31867436       0.00499180       0.01397139       0.07681144
Ar      14.27744041      13.04226827       8.27167168      -0.02262865       0.00294912      -0.03327614
Ar       8.61214441      10.90349264      13.60078030       0.00826641       0.04920873       0.02201457
Ar       4.34701624      11.94947308      16.43777593      -0.05321016      -0.05263312      -0.12420504
Ar      12.26452964      16.32164804      17.31118503      -0.06226884      -0.03849550      -0.00484189
Ar       5.35187616      17.18382435       2.94223433      -0.06248524      -0.05149033      -0.05307088
Ar      13.31728593       0.81583105      11.00889992      -0.06348575       0.07749102      -0.02040093
Ar      10.05217880      15.87000940      14.58374989       0.02474691      -0.03528024      -0.00974172
Ar       9.25040827       4.85233663       9.76465521       0.01874281      -0.07219969      -0.07037470
Ar       6.89342626      14.15920975      14.02537166      -0.00606109      -0.10232790      -0.04955456
Ar       6.77328887      15.74578548      10.37669757      -0.08210353      -0.03561237      -0.03800216
Ar      12.25179934      11.92009387      12.87311990       0.01204544       0.07435364       0.04582163
Ar      15.12585367      10.68704568      11.31112642       0.01369300       0.01265778       0.04318018
Ar      15.20594402      10.89306794       1.30159844      -0.00526097      -0.06094726      -0.11450108
