108
Lattice="17.35 0.0 0.0 0.0 17.35 0.0 0.0 0.0 17.35" Properties=species:S:1:pos:R:3:momenta:R:3 pbc="T T T"
Ar       1.98670718      10.55048989       6.05705415      -0.05359158      -0.03649554       0.05299564
Ar       2.74311522      16.95397494       7.76378406       0.02299332      -0.04733776       0.01884671
Ar       3.12043294      10.38894801       9.57613573       0.02503261      -0.01193499      -0.07766239
Ar      10.31461006       3.50788898       4.79364892      -0.03315885       0.00848587      -0.00423349
Ar       3.57417911      15.72719001      13.97521554      -0.01904173      -0.04987714       0.02992788
Ar      13.63148469      10.36305073      14.31243358       0.01580078       0.09859092       0.10348132
Ar       0.46031721      15.88837712       1.74343157       0.03475696      -0.05099083       0.00733554
Ar      14.14089770       5.92150282       9.58470217      -0.12326956       0.01536910      -0.08983688
Ar      13.03611621       3.15060417      12.53926077      -0.01417559       0.05642583       0.00225997
Ar      13.70157191       3.53031694       3.23905180       0.08959283      -0.12517185       0.11049853
Ar       3.87742272       6.66946926      10.57579548      -0.04565881      -0.03699481      -0.09606393
Ar      15.29460221      11.70976513       6.97764518       0.02554082      -0.05990960       0.09094018
Ar       2.33644231       3.66700285       8.38680220       0.06170290      -0.01777107      -0.01382539
Ar       2.19644209       6.41828439       5.59349692       0.00581586      -0.00867269       0.00647935
Ar       5.15575669       0.33934965      10.52018780       0.03944363       0.05544248      -0.02884225
Ar       4.89985532      11.90971211      16.07111934      -0.07676769       0.01696856      -0.08963304
Ar      13.77150414       3.09294667      16.73938820       0.02349267       0.01260123      -0.00764291
Ar       1.33510862       2.39562393       2.14095877       0.07538833      -0.03365253      -0.06216519
Ar       3.51299780       3.19612179       5.04367236      -0.04325740      -0.04751219       0.04601388
Ar      13.32904908      10.97630389       4.40840178      -0.02636479       0.10739883       0.02533560
Ar       9.63270817       6.71377030       5.94294981       0.02749529      -0.06392432       0.05709275
Ar       8.05494284       8.13277827       9.25690986      -0.19200814       0.03314168       0.00103260
Ar       5.52128149       3.85876810       9.16465116      -0.00144398       0.01919416      -0.06297619
Ar      10.30658193      11.60468604      10.59565373       0.01429664      -0.05276803       0.00918323
Ar       6.40758623       8.50104072       0.67978817       0.08432697       0.02888140       0.01884480
Ar       3.03108699       2.93523934      15.56942538       0.07909233      -0.01519451      -0.08460971
Ar      10.31025260      13.69205215       0.15603616      -0.01046321       0.03519723       0.06146219
Ar       7.73516695      11.42210453       2.38932747       0.02633237      -0.03074465      -0.06779500
Ar      14.35085168      16.69806482       8.59829794       0.05262093       0.04946059       0.02919896
Ar      10.88678341      15.03794112      10.12468333      -0.01865022      -0.04503542      -0.02075433
Ar       4.39081443      17.08257724       3.93092796       0.03563252       0.11040455      -0.03924165
Ar      10.38026685       1.17935269      17.06143504       0.02848862      -0.03316285      -0.11276534
Ar       5.33505181      10.54458092       6.76809348      -0.04621504      -0.05383056       0.03266159
Ar      10.00357734       8.62507752      12.35500570      -0.11396830      -0.06083186      -0.04365850
Ar       3.36602489       9.42236180      13.47873795      -0.00345414       0.08656499       0.02736416
Ar       7.58561264      14.48692377      15.27130821       0.07433211      -0.01891282       0.04293800
Ar       4.01301875       3.66002703      12.38898228      -0.01908852      -0.01640202      -0.01911707
Ar      10.03336619       3.88987700      14.65374296      -0.03193882       0.04281565      -0.03211269
Ar      11.89899454       1.92524607       9.52761929       0.04903000       0.05133562       0.00344914
Ar       1.44624386      16.56397802      11.65144688       0.00992916       0.00248934      -0.04950324
Ar       3.50460880      17.23321868       0.51844851       0.04157884      -0.00777180       0.02503925
Ar       4.48055988      13.78023751       9.61156291       0.00098764      -0.03816935       0.05270947
Ar       6.33594956      11.15349552      12.54113375      -0.04440515      -0.03781401      -0.01837862
Ar       0.47046142       1.91602442       5.62806406      -0.03532266       0.06949758      -0.01644603
Ar      15.70946556       9.83338823      11.32129043       0.01313419       0.02306853       0.07674835
Ar      14.26371879      13.47471291       1.04190017       0.00737155      -0.02414980      -0.03482954
Ar       9.05847319      11.31014222      15.23674661      -0.13004891      -0.09628738      -0.04314711
Ar       6.28815902       7.52066983      13.22249968       0.01130524       0.07805524      -0.05183640
Ar       2.53681526      12.69715323      12.57546883       0.02361631       0.08993447      -0.01351324
Ar       3.09509234      13.95650714       5.31908904      -0.04243074       0.07737485       0.02460880
Ar       5.87962288       6.67536406       5.82562269      -0.05316300      -0.01469935      -0.04495465
Ar      16.85574532       6.83531554      15.68089492      -0.05674088      -0.05248049       0.02561595
Ar       1.47037965      10.42702495       0.97516891      -0.08496848       0.02258253       0.06911712
Ar       0.23659023      10.36392539      14.39552381       0.06905250      -0.01637000      -0.03302809
Ar       6.89788325       4.73467082      16.41214077      -0.01905121      -0.00409244      -0.06478148
Ar       6.47774729      16.23968479       7.12133072      -0.04623005      -0.00404328      -0.05123455
Ar       3.99758764       6.84520685       2.55144105       0.05121695      -0.05219431       0.03106266
Ar      17.06190339       1.50131448       9.37652001      -0.09387606       0.04641076      -0.00682812
Ar       0.39290777       2.78600728      12.77350751      -0.06122914      -0.04020032      -0.11252664
Ar       6.53547357      13.97125964       4.55295557      -0.02316712      -0.06789345      -0.01650653
Ar      14.51873959      16.71810553      11.99738108       0.04507042       0.07772815      -0.02550300
Ar      12.13251886      13.24281875       7.53410344       0.08647893       0.00893743       0.01704062
Ar      13.92030025       1.26941042       5.68038387       0.04030844      -0.11203143      -0.00231480
Ar      13.79432241       7.13483541       2.23462847      -0.05338115       0.00109796       0.06534174
Ar      15.96596745       4.73066660       6.20539438      -0.01910189      -0.07360144       0.03007243
Ar      11.18454648      16.67413246       6.83375912       0.05991195      -0.03083774       0.01164058
Ar       4.68620952       3.31365679       1.84095041       0.04198695       0.02818353      -0.06689536
Ar       7.54089232       1.76542232       2.41947259      -0.01258383      -0.04365310      -0.01639695
Ar       4.42096222      10.39082444       3.26799519      -0.02182339       0.04965617      -0.04388576
Ar      11.96516894      10.54783930       0.69509370       0.13886237       0.00603066      -0.04744350
Ar       7.39092580       3.16435692      12.19148266      -0.04127977       0.00492075      -0.02553638
Ar       7.18285295       2.96314267       6.29994960      -0.04927459      -0.05195502       0.03890510
Ar      15.98301013      13.44161683      13.51557966       0.01409977       0.05196058      -0.07028766
Ar      10.19117709      13.83534659       4.11189456       0.02124225       0.01168751      -0.00299492
Ar      11.47457053       7.37444517      16.20683436      -0.08107898       0.01835793      -0.00497646
Ar       0.67433259       6.58085049      12.35498155      -0.03538665      -0.02999312       0.03955006
Ar       3.37641874      13.66967060       1.75882577      -0.02970771      -0.04481730       0.07465733
Ar       9.93973449       0.19394726      13.30468481       0.02573952      -0.09591633      -0.00314545
Ar       1.21216976      13.56120103      16.31241847      -0.00481018       0.06935542       0.01679613
Ar      17.08203342      14.96532273       6.28842637       0.09262739       0.02670198      -0.05312316
Ar      15.29878617       9.45327964       0.43288940      -0.01635012      -0.07796630       0.07255915
Ar      10.15851398       5.45968148      10.44598670      -0.00301588      -0.02732418      -0.02081036
Ar       8.47997214       1.09345411       9.04592147       0.02139295       0.08508205      -0.00079558
Ar      16.80169948       9.23160723       3.83367123       0.01251052       0.00559140      -0.02335608
Ar       9.51985168      10.36099909       6.18686200      -0.05146014      -0.13191368       0.05786263
Ar      11.17255842      13.91343854      13.93723643      -0.01269022       0.06865324       0.11454354
Ar       0.04060083       3.67469194      16.60918087      -0.02675157       0.02555350       0.07749234
Ar      13.71259021      14.93824597       4.47387126      -0.08305668       0.02876838      -0.00375049
Ar      10.68783557       5.17932317       1.32748050      -0.00921991      -0.03667491       0.02713937
Ar       6.46242936       1.15653373      15.12061722      -0.08190954       0.00584619      -0.00409940
Ar       7.13469406       5.40497871       2.75187648      -0.00919827      -0.05130788       0.06379336
Ar      11.23049436       0.21388716       3.00150568       0.03372235      -0.04562676       0.07429848
Ar       3.32913621       7.28147860      16.07278853       0.11445660       0.07635548       0.04271011
Ar       0.56173000      13.53862168       9.45722615       0.03451771       0.03259911       0.05912264
Ar       0.16443271       5.86026094       2.28857368       0.03327366       0.03734441       0.16707362
Ar       0.31779200       8.07731751       8.33264617      -0.06377214       0.09168961      -0.05646843
Ar       7.74817459      12.99698099       8.10557846      -0.02629916       0.03725418      -0.01316430
Ar      12.27622226       9.61502594       8.68012319       0.05575765       0.05720683       0.04355062
Ar       9.43389440       8.49073525       2.73612111       0.16708025      -0.02226486      -0.00232584
Ar      14.40457520      17.32422942       1.70859695       0.09326188      -0.00527797       0.00467255
Ar       0.72878758      16.98347826      15.20739354       0.01089237       0.03795428       0.07747459
Ar       6.42270271      15.60476126       1.12484133       0.02707955       0.00136398      -0.06636234
Ar      13.56026935       7.06061864      13.13300053      -0.03166238       0.06521149      -0.03616501
Ar       7.58329564      14.73519235      11.37877050       0.03356482       0.04156628      -0.04265998
Ar      13.33216829      17.28423963      15.30499484      -0.02080933      -0.10829586      -0.02857242
Ar      14.41876540       8.03091523       6.34775456       0.05557264       0.04968279      -0.00937472
Ar       0.36404437      12.66204522       3.61596077      -0.05590470       0.03477795      -0.01242730
Ar      12.68094502       4.68421702       7.02785480       0.02486615      -0.01205929      -0.06525478
