108
Lattice="17.35 0.0 0.0 0.0 17.35 0.0 0.0 0.0 17.35" Properties=species:S:1:pos:R:3:momenta:R:3 pbc="T T T"
Ar       2.57882470       0.93683241       6.99918144       0.05076167       0.00281029       0.01023163
Ar       5.57082277       7.49355707       4.78683196       0.10450245       0.09965563       0.04521757
Ar       8.08538916      10.02765419       3.20402004       0.05728450       0.01229242       0.00964058
Ar      14.71957772       7.97109520      11.37507026      -0.02102968      -0.00409236       0.11881262
Ar       3.33528574       4.37398675      11.42171459      -0.03104855       0.04603485      -0.03365460
Ar       3.03823700       4.37270459       7.98786944       0.04709400      -0.02363836       0.01095968
Ar      16.71942982       5.51940137       0.18491841      -0.00792085       0.01361906      -0.08694843
Ar      16.05160479       4.49301942      10.02746079      -0.02466773       0.02783949      -0.02389545
Ar       9.35922139       3.81602113       4.67410237      -0.03846535      -0.02417562       0.01631843
Ar      15.00952365       1.95008440      12.16610837      -0.01153776      -0.03338229       0.06032826
Ar      13.72499946      12.29365211      10.93258296      -0.00950178      -0.06115806      -0.10508031
Ar      15.93408786       2.37866503       2.05982965       0.00983254       0.08230128       0.05087015
Ar      12.86278785       4.11761989       3.38093253      -0.02158814      -0.00708609      -0.00572909
Ar       3.15206119       5.10867539       3.96877308       0.00155857      -0.08486038      -0.00131813
Ar       6.43603174       4.24184677       2.58188536      -0.00113223      -0.03895237      -0.00915363
Ar       3.57365762       1.52078604       2.54089155       0.03986023      -0.03995857       0.02532813
Ar       0.87897491      15.65209608       4.92942399       0.00976243       0.04130973      -0.07553955
Ar       9.06787094       2.28436751       1.36845789       0.01310015       0.12408723       0.18157167
Ar       7.80925061       5.85088638       8.53426629      -0.13577145      -0.01407507      -0.02919270
Ar       2.20386515       8.31697464       2.33999992      -0.07818656      -0.04436673      -0.03907177
Ar      14.94460954       8.39966263       5.68018430      -0.01394700      -0.01273103       0.01661111
Ar       0.81203222       2.36240875       4.85412522       0.05189532       0.10583337      -0.03788141
Ar       5.35373755       1.09666509      12.68257424      -0.09900445       0.01420859       0.02951628
Ar       2.61603596       8.98403202       6.49210263      -0.02458857      -0.05948503       0.04534061
Ar      11.06701317      14.53105257       3.50493662       0.01147833      -0.00608783      -0.02987884
Ar       6.32398205       3.66777662      16.28624426       0.05701506      -0.03649080       0.02139915
Ar       9.25684602       4.86828675      15.00460369       0.10905158      -0.07121583       0.01626561
Ar       8.09813115       2.83596630      11.84638426      -0.02521593       0.09809314      -0.03896013
Ar      12.01071445      15.45925983      10.20184473      -0.08841132       0.03728378      -0.10493873
Ar       4.30168931      16.00438934      10.17034122       0.00957119      -0.00367110       0.02543106
Ar       9.10179020       6.39249650       1.39567104       0.03602450       0.02243227       0.08516171
Ar      14.87796544       3.19792164       7.11542889       0.03510490       0.04889051       0.06064312
Ar       9.46443466       8.27683935       6.38805261       0.05286996      -0.04021923      -0.10102276
Ar      11.95455398       3.26310844      16.44772483      -0.08643416       0.00945898       0.07228208
Ar       1.24920562      16.99239271       0.55130876      -0.01168080      -0.05298064      -0.00577537
Ar       0.91176005       7.57325842      12.01940701      -0.00110943       0.01647478       0.08820218
Ar       2.85461515       4.58815845       0.50749293      -0.01294714       0.05416261       0.07966717
Ar       2.88881303       2.24523330      14.63939445       0.01626566      -0.06234477      -0.09666342
Ar       6.31133220       1.69968583       4.68169957       0.06740265      -0.04168852       0.03838641
Ar       6.07922251       2.35197986       8.79162341      -0.01866530      -0.02240171       0.00711325
Ar       0.03474233       6.39290655       7.70920956      -0.00428849      -0.00871777      -0.02814028
Ar      11.74090535       9.75811691       8.79927328       0.01785956       0.05247906      -0.01093043
Ar       0.95535261       1.49062437      10.68602006      -0.09162932       0.09525981      -0.01952971
Ar       6.83897954      12.82232620       0.42019356       0.03768431      -0.05193230      -0.04197237
Ar       6.91354578       6.59436968      11.97708674       0.12773035      -0.01670436      -0.03878400
Ar       1.74285778       8.06026359      16.26902440      -0.00173686       0.05079560       0.05395114
Ar       4.25303064       9.50658761      12.68289002       0.01705987      -0.11778235       0.06929585
Ar       4.45926992       6.43966350      14.89796704       0.04341469       0.05345898      -0.02764099
Ar       0.78623290      11.59936122      15.31889034       0.06702848      -0.06513911      -0.06709121
Ar       2.00107178      16.37546122      13.09711499      -0.00445072      -0.02096477      -0.05038518
Ar      12.16987685       0.36267941      13.64643970       0.03271652       0.05736677       0.02287013
Ar       0.28783203       4.05717256      13.32447369       0.09720158       0.02736640      -0.09383077
Ar      12.74194241       0.45660994       3.03619661      -0.06174749      -0.07313185       0.01845472
Ar       7.27456570       9.63010291       9.58671662      -0.05157813       0.02545976      -0.06154836
Ar      16.72699705      11.09843604       4.52938880      -0.02641499       0.08065081       0.07515032
Ar      15.35024741      10.47813892       8.48036172      -0.10388067      -0.12257255      -0.10795541
Ar       4.22715731      11.46629165       2.43094214      -0.06001147      -0.05402184      -0.01520098
Ar       3.00727945      14.42305754      16.38802016      -0.04437332       0.06532731       0.03231527
Ar      12.91476716      11.50862645       4.46649284       0.07234754      -0.05463553       0.03725631
Ar       6.16383811      10.99267962       6.36208371       0.02676664       0.00237802      -0.03846375
Ar      15.34431217      16.01989627       0.98405066       0.03205658      -0.01424195      -0.01330367
Ar       6.92076710      13.62507632       4.19006115       0.06443385      -0.00184681       0.02515472
Ar       7.54458331      16.26218243       1.92400638      -0.01429066       0.03347839       0.09997763
Ar      17.34453395       5.82127830       3.58213809       0.03104575      -0.00273732      -0.01548322
Ar       3.03774885      13.13495296       5.76934244       0.01897794       0.04871725      -0.03967716
Ar       9.43035479      15.35174727       7.91184153      -0.02589279       0.07470295      -0.08922266
Ar       5.39880219       0.01469749      16.80585115      -0.10458221      -0.05673936       0.03665205
Ar       9.95654709      12.58328178      10.88699011       0.01723885       0.01703059       0.00039014
Ar      14.05602226      12.14832809       1.36086742       0.01741647       0.02255709       0.02527618
Ar       7.67683819       8.61792790      15.19962432       0.03788682      -0.07009321      -0.03016898
Ar       9.91720373       0.33743889       5.23855500      -0.00323510       0.02141880      -0.07814895
Ar       9.73148042       3.10416583       8.17865181      -0.07500388      -0.00989656       0.00213119
Ar       9.69385055      12.31792354       6.31064568      -0.00626538       0.03062513      -0.03878317
Ar      16.53392302      14.25113708       8.27728185      -0.00628783      -0.03758272      -0.01183164
Ar      15.11705297      14.55016998       3.85234611       0.00551509       0.04899932      -0.07710769
Ar       6.27951872      13.25955894       9.29473508       0.00493471      -0.00864875       0.00562093
Ar      10.33753346      12.38975130       0.27611072      -0.03739958       0.02880551      -0.02765942
Ar      15.01470745       1.60759869      15.96232682       0.10198317       0.03031044      -0.04035567
Ar      11.73264414       8.21502202       3.13748952      -0.00108831       0.08506105       0.00535123
Ar       6.07559727      15.93298296       6.62030616      -0.04827916      -0.02660437       0.10905456
Ar       0.34396266      13.02840914       1.41711087      -0.00633539       0.07048387       0.01589755
Ar      15.36376774      17.09611588       6.81318337       0.02775229       0.00637082      -0.00160223
Ar       8.31313411       1.15346105      14.95748938       0.01759600       0.01677873      -0.02956317
Ar      16.69003842      14.99407997      15.30252127      -0.06791127       0.01607130      -0.00660958
Ar      10.41156188       6.78451864      11.04000466       0.03062841      -0.00699374      -0.02470425
Ar       4.83059478       7.18524943       9.28162301      -0.04597649      -0.02114481      -0.04055707
Ar      15.67522826       7.35349012      14.52155587       0.00067854       0.07470489       0.03134061
Ar       2.25179988      11.93884458       9.23178088       0.01236943      -0.10377759       0.04023719
Ar       4.58472806      11.16099317      15.54982882      -0.02609287       0.03391026      -0.04081410
Ar       5.91597968      14.17175809      13.49506583      -0.00866421      -0.10595308      -0.02015658
Ar      11.72216931       3.97259589      12.54916123      -0.06762126       0.04771813       0.08183637
Ar      11.15432506       9.33893221      16.57089152       0.04507257      -0.08971900       0.02838811
Ar      12.60803202      13.84724111      13.96568892       0.02628253      -0.00370686      -0.02672756
Ar      15.94250080      15.55118587      11.82732877       0.03324241       0.00860469      -0.07156530
Ar       2.72681333      13.18292816      12.60590970       0.00688970       0.00532673      -0.08240630
Ar      12.92549450      14.02627125       7.24062552      -0.00772956       0.01430816       0.00244727
Ar      11.63169668      10.10314808      13.24157220       0.06474784      -0.00071120       0.03978641
Ar       5.61952213       7.84361596       1.18066342       0.07146860      -0.06233700      -0.01362250
Ar      12.02601417      16.97677356      17.00103912      -0.01815683       0.05766106      -0.01851370
Ar       4.12699081      15.09647263       2.48326107      -0.00815869       0.05121978       0.02185884
Ar      12.50929260       1.62965002       9.87764715      -0.07862445      -0.04599849      -0.01034458
Ar       9.22723016      15.20936682      15.54124700      -0.04724199       0.11491185      -0.00468522
Ar      12.10444784       6.12499141       7.92595666      -0.00243045      -0.08415350      -0.02254587
Ar       8.28113026      11.48385918      13.40933117      -0.00071735      -0.03004987       0.11238982
Ar       8.40491789      16.16186368      12.00789079       0.02875809      -0.03601096       0.09196083
Ar      14.55608320      11.00201186      15.18389345       0.03849347      -0.09194176      -0.03000514
Ar      16.90136381      11.06095284      11.91555002      -0.04583188      -0.00438540       0.02593560
Ar      15.54846496       8.68866997       1.64678826      -0.08893106      -0.04116817       0.10606372
