108
Lattice="17.35 0.0 0.0 0.0 17.35 0.0 0.0 0.0 17.35" Properties=species:S:1:pos:R:3:momenta:R:3 pbc="T T T"
Ar       1.12539675      13.64290267       4.91623892      -0.02572959      -0.06048884      -0.04663958
Ar       9.34221521      11.35118088       5.69464916      -0.04447618       0.06677170      -0.07766857
Ar       6.26105351      10.98581909       2.32837053      -0.03326778      -0.00090107      -0.03264872
Ar       0.84362761       6.96891951       8.97138959      -0.00798987       0.01413978      -0.03457500
Ar       9.16017268       3.63996819      13.22816374       0.05378771       0.04264796      -0.02718726
Ar       4.31877483       7.42588586      10.17331705      -0.02759830      -0.01194168      -0.06827565
Ar      16.77176967       5.39631370      12.68734632       0.01844290      -0.00290600      -0.08326060
Ar      14.28028888       4.92708529      10.04218960      -0.03579333      -0.02424127      -0.08764187
Ar       8.43964619       0.90325042       6.57428536      -0.03687190      -0.02522835      -0.06236064
Ar      11.95479948       4.20396968       7.09135646       0.01163187       0.10456130      -0.06547931
Ar       1.13927410      13.64344830       8.63339128       0.12987889       0.08350330      -0.05394122
Ar      13.19178448       0.26921956       1.09072171       0.01772007       0.07845745       0.05050978
Ar       9.82078602       8.61812429       3.20333197       0.00052391      -0.00394765       0.07202795
Ar       4.91757315       1.08736536       7.81673279       0.03659751       0.03397604      -0.05609696
Ar       7.29055275       4.38254695       8.22646719       0.00400985      -0.03436409      -0.05952755
Ar       3.90252689       0.70678888       1.35129376      -0.03761786       0.02911293       0.03799328
Ar      16.88215674       1.08521276       0.54868920       0.03212276      -0.02059681      -0.00466378
Ar       9.62287478       2.53356853       2.99167176       0.03083782       0.01037383      -0.06572880
Ar       7.01362403       6.79183146      12.24026295       0.06184615      -0.05254475      -0.00420083
Ar       0.84218993       8.49223135       5.43149308       0.06971614       0.00098702      -0.07511339
Ar      13.66512389       1.61143649       4.76439324      -0.03578959       0.06074660      -0.10656091
Ar       4.58581934      14.79003956       7.63187887      -0.07337449      -0.05378749      -0.05289166
Ar       5.08199530       2.73695072      14.34747588       0.05565108      -0.14584832       0.06186491
Ar       5.41750674       8.35034249       6.51720876       0.05089974       0.11579356       0.09464162
Ar      10.44638222      16.54661514       3.13223391      -0.02879478      -0.00841831      -0.02438123
Ar       6.00633262      15.74205970      14.18046571       0.04397667      -0.01808744       0.07035178
Ar       6.11152928       6.70432470      16.16209965      -0.03294532      -0.02919507      -0.06324733
Ar      11.81796440       2.49653227      16.15540824       0.10206409      -0.01399760       0.00020378
Ar      12.66124722      12.36939064       7.97753685       0.03768214      -0.10222767      -0.08153724
Ar       3.22036863      13.92607139      11.31748732      -0.02051488       0.09695352      -0.02045918
Ar       6.03176680       7.66570742       2.27918057      -0.00882290       0.06635754       0.08464570
Ar      15.51276674      14.69597361       2.44089828       0.01939125       0.01312009      -0.04886859
Ar       9.16347067       5.43435741       5.22058906       0.03404808       0.03330452      -0.00831928
Ar      12.82694906       4.87266307       2.44696790       0.08524823       0.07535383       0.11476996
Ar      15.38107799       4.49185072      16.91840624      -0.02703773       0.00365028      -0.00801218
Ar      17.19301192       7.64921193      15.87521786      -0.05560232      -0.03985032      -0.00779224
Ar       3.05225600       5.43107021       6.28667706      -0.07203804      -0.00789500      -0.05268063
Ar       6.12098203       2.87426578      11.25791747       0.19224054      -0.05279783       0.03958836
Ar       3.63640360       0.20113203      11.11385037       0.00857636       0.00463229       0.01757245
Ar       1.49194459       2.44257610      12.47096204       0.01207238      -0.00663999       0.01580856
Ar      15.56208873       5.95889558       6.83630065      -0.00062498       0.04280546      -0.00210399
Ar      11.98101915       8.00196461       6.55298089      -0.05072404       0.07908719      -0.03871685
Ar       1.62776393      17.29966038       8.21101571      -0.12340252      -0.00308754      -0.07614991
Ar       7.05780736      10.24875984      15.76741456       0.02372256      -0.01641482       0.05835187
Ar       9.91761254       5.88626289       0.65183823       0.13647054       0.03528031       0.03831514
Ar       1.48631981       4.60523436      16.33520540      -0.03400981      -0.03134795       0.04434884
Ar       4.24657810       8.84818173      14.12495170      -0.03948751      -0.05305731      -0.00274932
Ar       3.23108525       4.73226442       2.73943929      -0.02893200       0.08321749       0.03279882
Ar       4.07743232      12.89127957      14.90587726       0.09449972      -0.03770766      -0.00517482
Ar       3.16720138       3.83997708       9.35111577       0.16307356      -0.07739831      -0.01112669
Ar      12.39188867       2.70641076      12.16972766      -0.07892363      -0.11085200       0.10367650
Ar       2.86278174       5.86387916      12.81177963      -0.09594966      -0.00161951      -0.05369739
Ar       5.99865526       3.63700876       0.61245479       0.02795029       0.05791751      -0.00455914
Ar       8.69357228      10.34005844      12.18891388      -0.02860022      -0.01583448       0.01095500
Ar       2.02827894      10.88324704       2.28608277      -0.05763840       0.02895756       0.04147714
Ar       2.49555547      10.13733998       8.34568678       0.03876673       0.07139949      -0.00332740
Ar       1.21834299      10.82102766      16.41671714      -0.01470403      -0.06006226      -0.02111373
Ar       2.15574948      16.55712212      14.81623045      -0.02429008      -0.02689540      -0.01853843
Ar      14.69597811       8.30235689       4.08443058      -0.00046175      -0.04513909       0.05177382
Ar       8.88603741       9.17023159       8.46328135      -0.01116650      -0.13224939       0.01684173
Ar      12.70203903      16.53038607      13.59917175       0.01667809       0.00885977      -0.04465065
Ar       4.91415984      14.63597498       3.66673167      -0.00600172       0.15031252      -0.01556732
Ar       5.75996137       2.78218433       4.64283458      -0.13499448      -0.04566966       0.06092527
Ar      17.25640310       3.48913032       3.70769512      -0.04037370      -0.03796017       0.08202632
Ar      15.54685671      12.24911534       6.20830274       0.03251564      -0.12302515       0.13736894
Ar       6.47243156      12.01981077       8.09931051      -0.01089760      -0.01331712       0.04190841
Ar       6.24878753      14.79084535       0.07152443       0.03659053       0.01373492      -0.01970283
Ar       9.52363541      12.77052932       9.31849650      -0.13414616      -0.02890793      -0.03755850
Ar      12.81151111      11.69648195       4.03853852       0.05588655       0.00802930       0.05658943
Ar      11.02676769      11.01557885      15.08546201      -0.04277005       0.02055803       0.04629367
Ar       8.48395344      14.60551683       6.09746307       0.03722229      -0.08271592      -0.03227785
Ar      10.08336068       2.45155840       9.33471853       0.04904325      -0.02726909      -0.03988489
Ar      15.52756731       9.48733735       8.46873064      -0.07407148       0.06404400      -0.01232228
Ar      15.98227310      16.04993479       7.09848002       0.01106437      -0.01827299       0.04865146
Ar       7.05222400      17.17809485       2.60450096      -0.01647131      -0.01854323      -0.01412793
Ar       7.47820430      17.02293443       9.56807089      -0.08588774       0.00985024       0.00082082
Ar       9.15604276      13.37291002       1.47181986       0.03228322       0.09600082       0.03896594
Ar      15.48816069       1.97829893      14.30420342       0.09541385       0.01077339      -0.01357836
Ar      15.93776851      10.93514812       1.88057424      -0.00285715       0.08123715       0.01579815
Ar       0.45782956      17.22841497       3.97151309      -0.06994251       0.06006202       0.04218003
Ar      15.65956727      15.11489148      16.01738115      -0.01208676       0.03743347      -0.05921811
Ar      17.02086128       2.45198955       7.10121474       0.01673331       0.00065115       0.00025438
Ar       9.08410761      16.85267740      12.88778844       0.02393903      -0.03421445      -0.00239869
Ar       0.10989263      13.51204680      13.46544337       0.07607082       0.02364871      -0.00958717
Ar      12.16959769      10.06419582      10.71289317      -0.04816394      -0.00464708       0.05112111
Ar       5.06306007      10.84837768      11.23713552      -0.00524573       0.15374751       0.03743427
Ar      14.79349468       8.29347401      12.02874067      -0.06843160       0.04974192       0.02624987
Ar       3.88474488      11.71099223       5.43473781      -0.02161384       0.01120762      -0.06736518
Ar       9.66228804       7.38487907      14.65661336       0.01552672      -0.07165182       0.01677160
Ar       8.70124489      13.66584685      14.89287149       0.05207679       0.03148924       0.00194360
Ar      13.25127346       5.77859335      13.80763501      -0.07026457      -0.04090761       0.06092002
Ar      13.00618265       8.51497642       0.46088058       0.03938306       0.03472746       0.06732842
Ar      15.93861001      16.45279406      12.07024590       0.01237378      -0.00070113      -0.10618503
Ar      13.96173398       1.76484391       9.27348432      -0.00627278       0.01484510       0.02680627
Ar       1.19091671      10.36896983      12.11537628       0.01470194      -0.08035412      -0.02906909
Ar      12.51028894      15.21406710       6.05545809       0.00385452       0.04733432       0.03046856
Ar      14.64710680      12.31575327      11.61717471       0.02437699      -0.03712230       0.00271508
Ar       3.19724168       7.66976277       0.19424116       0.09718891      -0.04806838      -0.01230566
Ar      10.33053195      16.06617815      16.69767549      -0.03307770      -0.09182244      -0.04682660
Ar       2.06651010      15.13333133       0.98083244      -0.04542176      -0.10354102       0.06646765
Ar      11.04180909      16.12984268       9.31133990      -0.01756897       0.11318667       0.05350036
Ar       7.69702229       1.23015561      16.12341234      -0.06079903      -0.02828781       0.02611791
Ar      10.82157854       6.53386720      10.98437653      -0.08635507      -0.06291094       0.09861107
Ar       6.78708397      13.74229274      11.49861068       0.02589066       0.04918837      -0.01244272
Ar      11.24115193      13.51603438      12.44322063      -0.11574350      -0.03054118       0.07164233
Ar      13.27087690      12.87089421       0.39728958       0.01377044       0.02790414      -0.03109182
Ar      14.82437384      10.19575196      15.07310633       0.00481115      -0.00031309      -0.02504361
Ar       0.55096189       6.92951239       2.19509900       0.02179366      -0.09334049      -0.02017580
