108
Lattice="17.35 0.0 0.0 0.0 17.35 0.0 0.0 0.0 17.35" Properties=species:S:1:pos:R:3:momenta:R:3 pbc="T T T"
Ar      17.22530970      10.81773103       4.43677319      -0.00635697       0.08220375      -0.01578647
Ar       7.31537592       9.50290953       7.08062498       0.00934215      -0.04231336       0.02129915
Ar       6.15338781      11.97017048       4.15278556       0.02883279       0.04259324       0.00387454
Ar       0.50592746       5.33435402       9.46546237      -0.02164736      -0.05373570       0.04417354
Ar       9.26862131       5.58021843      14.94316608      -0.02008709       0.02336881       0.01251884
Ar       5.34356256       9.51139672      10.91491964      -0.03778987      -0.04581555       0.04369949
Ar      16.52142531       4.00657064      13.66709533       0.00115599       0.04851902       0.00136128
Ar      13.79910099       4.62059545      10.18766887       0.00633113       0.03908833       0.03363011
Ar       7.89079309       4.64095055       4.60711245       0.05687080      -0.07597933       0.00703362
Ar      11.92054491       3.24958572       6.08034007      -0.04790700       0.01898097       0.05256525
Ar       0.70063507      13.42329493       8.09213892       0.01511527      -0.08404824       0.04391831
Ar      13.03923659       0.88140081      16.78297224      -0.10831039      -0.01327834      -0.01894927
Ar       9.21332327       8.54812476      17.17032056       0.02113428       0.09659606       0.05318043
Ar       5.74212635       1.76133498       5.80892974      -0.01829868      -0.00570245       0.06566486
Ar       6.55460343       5.18476495       7.97471248       0.02009363       0.01849067      -0.07007135
Ar       5.07092270       1.78840770       0.48881899       0.07956431      -0.02769949       0.06348674
Ar       0.50071871       2.94864804       3.37773369       0.04977631       0.04142419       0.00896747
Ar      11.54931135       2.85022807       2.45505113      -0.05432408      -0.06677705      -0.06699932
Ar       6.16419723       5.57305722      11.39669520       0.02546880       0.00929482      -0.03758684
Ar       0.28200481       7.87696856       6.52177640      -0.01016276       0.03840213       0.01302579
Ar      12.55017166      16.65896730       6.03545274      -0.04276564      -0.00751669       0.07934375
Ar       6.42123294      16.42209623       7.96695936      -0.02110604       0.02339889      -0.07427043
Ar       5.07839020       0.95320193      12.66019424      -0.01000813      -0.06703140       0.02867081
Ar       3.78665109       8.83477290       4.81731351       0.03868363      -0.06543517      -0.01234165
Ar      12.12249221      16.35807421       2.43919594       0.09101940       0.03035204      -0.08218134
Ar       7.35010180      16.87230959      15.57901642      -0.03840776       0.01564061      -0.01643985
Ar       6.09210506       4.12619826      14.96209213      -0.03485533      -0.02638088       0.00591473
Ar      10.42552980       0.25322556      13.90299663      -0.10206042      -0.03579001      -0.02981377
Ar      14.67383062      12.67487396       5.95207050       0.05121347       0.10671901       0.05215946
Ar       3.81657669      15.67472003      10.63751725       0.01078008      -0.06341089      -0.09225397
Ar       4.94991456       8.26323643       0.70768283       0.17211885      -0.01876005       0.02758219
Ar      15.63899896      16.09911706       2.52623039       0.07838591       0.00242297      -0.06097360
Ar       7.28460439       8.24930300       2.94406870       0.03524577      -0.01690287      -0.09910261
Ar      11.99948691       6.41281373       3.58619588      -0.03572658       0.03067725      -0.01310725
Ar      14.89665721       3.32041464       1.02277056      -0.04121381       0.02652318      -0.05264864
Ar      15.11788937       7.98577158      16.25403609      -0.07305746       0.03786543      -0.03418153
Ar       2.79956591       5.43672852       5.53429612       0.06174573       0.06427481      -0.01228787
Ar       8.81161411       3.21919543      12.54230219      -0.01214983       0.00029338      -0.00520350
Ar       7.40694528       1.65356533       9.80489255       0.05735273      -0.03352542       0.02075884
Ar       1.38631181       1.15939651      11.76664904      -0.03742513       0.01903505       0.08622156
Ar      14.67760451       5.25566233       6.29541582       0.01476509      -0.05060203       0.06506840
Ar      10.61886165      10.82564478       5.48049924      -0.02120283       0.03298419       0.05977649
Ar       2.48989980      17.20066231       7.15518426      -0.03791357       0.00578746      -0.02805634
Ar       6.90102222      11.10937779      16.67213573       0.01948059      -0.02015688       0.01669289
Ar      12.05132030       5.45491042       0.40455194      -0.03872751      -0.04627203       0.00243255
Ar       1.57076777       3.59740290      16.81809157       0.07778063       0.01436987       0.02120077
Ar       5.17629758       7.96421503      14.53155980       0.04537598       0.04688212       0.00527852
Ar       1.89591709       7.13010928       2.51362996      -0.01771425      -0.09863382       0.04607015
Ar       4.76830564      13.73612110      14.11435501      -0.03337365       0.08348302      -0.01139778
Ar       3.43624840       3.58091160       9.54527615       0.00689977      -0.03305475      -0.02171826
Ar      14.46407403       1.62079767      12.10601612      -0.03347883      -0.04966724       0.05245147
Ar       2.61577174       4.05736906      13.13010408      -0.00379292      -0.06401296       0.06656840
Ar       7.94830311       5.39972134       0.87679614      -0.05881360      -0.02005438      -0.01915177
Ar       9.50232841      10.14038675       9.21018649      -0.00775062       0.05042650      -0.01497302
Ar       3.13403936      11.00728302       1.56250405       0.05790660       0.05066597      -0.15580271
Ar       3.12764659       9.71310958       8.02981910       0.01930979      -0.00133943      -0.01062039
Ar       1.69224709      11.53322557      15.05866157       0.08991043       0.07029078       0.04886054
Ar       3.31136614      16.17543682      16.16794240       0.02110419      -0.00208775       0.02312814
Ar      13.91187054       9.10762709       4.48452309      -0.00682586       0.10254368      -0.00124750
Ar       9.93612984       6.92653634       6.95665111      -0.02858005       0.01934851      -0.08244114
Ar      14.46271155      15.22548479      12.86042545      -0.01676817      -0.00996967      -0.01477689
Ar       3.24551338       0.18328564       3.62949875      -0.02170883      -0.00507009       0.00592658
Ar       4.71593359       4.47074768       2.62739420       0.03334175       0.09186901      -0.00328783
Ar      14.63412373       1.56646469       4.14125203      -0.09085288      -0.01700589       0.03055482
Ar      16.88455924      10.08090501       9.48304562      -0.04867462      -0.02495571      -0.00645041
Ar       5.58078744      12.50373865       8.71481779      -0.03077564      -0.08323743      -0.08739428
Ar       5.61866828      14.45469459       0.66457151       0.06908654      -0.01979641       0.02398021
Ar       9.10853203      13.82393895       8.72484195      -0.06980541       0.04749998      -0.01440716
Ar      10.07428457      14.40103251       4.85998418      -0.04869491      -0.06924779      -0.04033444
Ar      10.59566124      11.31024934      15.19701903      -0.00936451       0.05132580      -0.10100117
Ar       6.59176689      15.55432952       3.89718015      -0.12898821       0.06897651      -0.00805594
Ar      10.28088682       4.09438618       9.31744540      -0.02541148       0.04685293      -0.00020100
Ar      13.56392342       7.95931525       8.15286675      -0.04474357       0.04052457      -0.03093649
Ar      13.30058448      13.53195637       9.83995184       0.01618171      -0.08882946      -0.01522384
Ar       8.40903071       1.63044321       2.66288707      -0.00158587       0.21697183       0.03781935
Ar       7.81691269      16.18300152      11.62674936       0.03116662      -0.00095467      -0.09650508
Ar       9.84637669      11.57459166       1.90267340       0.05231899      -0.04693339       0.07243799
Ar      16.60873774       0.47156222      15.19154242      -0.02064453       0.06889320       0.12516804
Ar      16.63649724      10.58858673       0.92982842       0.11608841      -0.03642533       0.01809046
Ar      16.18914489      16.03845950       6.79537313       0.08015411      -0.12748679       0.02965732
Ar      16.03502491      14.51808209      16.84333263       0.03608067       0.04948247       0.04323311
Ar      17.21136599       2.87435260       7.15572848       0.12815368      -0.05318070      -0.14519803
Ar      10.99549568      13.85610402      12.53825131      -0.01163803       0.00395664       0.02037119
Ar       1.19367795      15.10171300      13.29802081       0.07981287       0.03797710       0.03817743
Ar      11.99080074       8.06280107      14.85967313      -0.04650931       0.09637089       0.09714402
Ar       2.69169642      11.53542071      11.64301681      -0.00680361       0.03627742      -0.15920210
Ar      15.60074744       7.70390375      12.92224568       0.01800555      -0.04101059       0.02936684
Ar       2.77929283      13.76191831       5.08122245      -0.06597625       0.05779708       0.04804465
Ar       8.31913287       8.21319885      12.49959134       0.00059126       0.03565813       0.00698884
Ar       9.20874257      15.31332035       1.08695763      -0.06663721      -0.09457830      -0.03301494
Ar      12.80286478       3.76760255      14.58742572       0.00042691      -0.05276477       0.03210073
Ar      12.81732730      10.01434270       1.02731592      -0.05442776       0.09089759       0.01601266
Ar      16.23800865      16.88107665      10.25391707      -0.04612101      -0.09840901       0.02800281
Ar      14.16049166       1.72995151       8.05023934       0.01248764       0.04241495       0.03983662
Ar       2.00012647       7.81726871      12.28777448       0.02531909       0.02097709       0.01893389
Ar       9.48141761       0.82161651       7.12020588       0.01035476      -0.04252990       0.10739369
Ar      16.61496165      12.48185906      12.07749741      -0.06130198      -0.05817459       0.03385240
Ar       1.03463987       7.37176970      16.51851037       0.00560321       0.01533962      -0.03689733
Ar      12.42097379      14.58744408      16.11078112       0.00685103      -0.02680404      -0.04945274
Ar       0.92043927      13.84434903       1.90797767      -0.06257611      -0.05014464      -0.03297407
Ar      11.74858334      17.03458620      10.24413936       0.02780215      -0.04699080      -0.05330460
Ar       9.36175135       2.40462828      16.75406456       0.06773092      -0.07103872       0.01314815
Ar      11.29363469       5.87623111      12.04456857       0.12669977       0.05704622       0.02296763
Ar       7.72813785      12.22115415      12.51682558       0.01459341      -0.08113595       0.06691593
Ar      12.57983422       9.87265926      11.19632938      -0.08183113      -0.02390750      -0.08046435
Ar      13.29749756      13.00533582       2.71640735      -0.06619499      -0.08020828      -0.03608845
Ar      14.41199594      11.40900745      14.61942581      -0.04061684      -0.00816220       0.01044821
Ar      15.71826616       6.77246810       2.19035454       0.00887168       0.02488099      -0.00837336
