108
Lattice="17.35 0.0 0.0 0.0 17.35 0.0 0.0 0.0 17.35" Properties=species:S:1:pos:R:3:momenta:R:3 pbc="T T T"
Ar       0.34012190       9.37511629       5.83985315      -0.03072976       0.02142940       0.01117610
Ar       4.71026630       3.62814306       9.46845453       0.04950906      -0.18840728       0.08316077
Ar       6.11477770      16.78184477       6.52254618      -0.00860926      -0.01305604      -0.11852984
Ar       1.74775088       2.10187764       9.08034042      -0.11321505       0.01809737      -0.01513426
Ar       8.73972687       3.43448394      14.76658665       0.04592773      -0.05318072      -0.11852050
Ar       7.36658470      10.16010426      10.05307567       0.08402442       0.11403231       0.00094421
Ar      13.56267030       3.72593109       1.50042129       0.09697020      -0.02078387       0.07412115
Ar      13.81101747       1.69426258       8.22988353      -0.02313159      -0.06514305      -0.05887411
Ar       9.58713374       7.32493173       8.82880708       0.01515355       0.07314573      -0.08059374
Ar      13.45572581       7.52608133       2.72382629      -0.03770713       0.00243603      -0.01745536
Ar       1.58335695      11.81795870       9.87170072      -0.02382868       0.04543285       0.02573303
Ar       0.27630158      14.67687153      11.49007034      -0.05263975       0.02027282       0.01096458
Ar       3.68880732       9.80272895       4.40320404       0.01557186       0.03761715      -0.00828855
Ar       2.47231730       6.16665843       5.09310311      -0.04047363      -0.00090926      -0.01954119
Ar       5.77928627       6.38494475      11.84616680       0.04384606       0.01417388       0.07649308
Ar       6.60610084       3.56164207       1.02181703      -0.00741137       0.11308984      -0.01173021
Ar      16.94064868      17.28513649       3.68493648       0.01161737      -0.08698687      -0.00262805
Ar       9.99358940       8.58531998       2.50630701      -0.07092034      -0.05330716       0.09972168
Ar       8.25395861       3.93222642      10.66620222       0.00634369       0.02480345      -0.01992283
Ar      15.89836564      10.61772439       2.89791787      -0.07339716       0.04903392      -0.13907929
Ar      10.65145111       0.21869201       6.39699949       0.13040718      -0.05097417      -0.03956073
Ar       5.67698418      13.28261010       7.96320418       0.00033188       0.05239828       0.01983760
Ar       0.82436646      15.45332596      14.86524839      -0.04243638       0.02888226       0.01271908
Ar       5.91318502       7.47019586       2.38652919      -0.01844126      -0.08088291      -0.01436410
Ar      10.17543667       5.04699629       0.48598253       0.06273345      -0.11232738       0.00315424
Ar       4.60311918       2.95466042      14.48214767      -0.00587496      -0.03464124       0.05052986
Ar       8.28282432      17.23371100      17.30914149       0.04790999      -0.01039132       0.00762682
Ar      10.76007772      14.11715572       0.15272796       0.00681912      -0.01863281       0.01820877
Ar      15.14251312      11.04179824       9.07751002      -0.02451914      -0.04304128       0.12754878
Ar       8.28859554      14.34361447      10.91539762       0.08807993       0.08389569       0.01842997
Ar       4.50193044       7.77280775      16.00101792      -0.06320649       0.00060965       0.00372829
Ar      14.77446943      16.18147998      14.39008164      -0.00133351      -0.01203901      -0.05201421
Ar       7.15775231       9.80277801       5.16406765       0.01133127       0.02609156      -0.02179103
Ar      12.40324912       6.31894875       7.02759093      -0.02658138       0.03966221       0.00118395
Ar      11.93288837       5.03342472      14.61754971       0.00557966       0.02989127      -0.05930560
Ar       7.84921068       7.25854343      16.65029360       0.00019473      -0.03847466       0.06737517
Ar      16.88228693       7.14680970       3.13187936       0.06956631       0.03207893      -0.04752888
Ar      12.14919770       1.83438300      13.23155083      -0.05206382      -0.10953797       0.08641074
Ar       9.41481366       0.77658045       9.69122466       0.06563968       0.08795872       0.08426670
Ar       2.53322988       0.44670727      12.56920429       0.02063078      -0.11169656      -0.05464413
Ar      14.86715902       3.97231188       4.64845358      -0.03893435       0.04365021       0.01759029
Ar       8.81599749      15.79568741       3.57202472      -0.04194519      -0.08138198       0.06297961
Ar       4.39399255      13.91574233      11.43273067       0.09669134       0.09538212      -0.07594491
Ar       6.22228052      10.60806892       0.02417089      -0.08419763       0.12429366       0.02272904
Ar      14.33088865       9.48930484       5.86206582       0.03897800      -0.07908293      -0.03210664
Ar      16.06142288      16.85629604       0.08660758      -0.06514025      -0.08229754      -0.00727111
Ar       3.67456806      10.09387587      12.48556917       0.04407147       0.00430036       0.02811599
Ar       2.34085124       5.64169117       1.46771643       0.04379440      -0.05587175       0.03649500
Ar       5.32549330      16.65022057      15.01765013      -0.06172947      -0.03684821       0.04184685
Ar       5.73832611      17.32087285      10.20797404       0.03104543      -0.01756052      -0.02233584
Ar      15.86740871       4.80995003      10.76405970       0.02001756       0.06857638       0.02259954
Ar       1.57470473       4.08156064      12.45524783       0.00515366       0.07344832      -0.02527004
Ar       7.71764828       5.59950024       5.37336547       0.01803455      -0.00597360      -0.01898627
Ar      13.06886377       7.82664884      10.35563518      -0.12527668      -0.06525586      -0.02518916
Ar       1.46679119      12.55082426       3.04056578      -0.07058859      -0.00595906       0.01689165
Ar       4.84005850       8.44531976       7.68542398      -0.00188100      -0.01930528      -0.05450777
Ar       1.77172598       9.06981761       1.57701643      -0.05356810       0.05120974       0.05260717
Ar       0.69060905       2.82314960      15.58037628      -0.04478253       0.02017221      -0.00656344
Ar      15.52940943       5.94923360      17.01266991       0.04312419      -0.06775079       0.04503286
Ar      10.57101924       9.57461074       6.13859632       0.00737747       0.01769477       0.03927049
Ar      14.21833294      13.24186372      11.81901200       0.07065798       0.05621973       0.03576926
Ar       2.74701640      16.27681087       5.20206850      -0.01341446      -0.00329134       0.02756200
Ar       0.02747768       3.05180092       2.23172951       0.02499033      -0.00647062      -0.02082785
Ar      13.48268844       0.69962538       4.38185825      -0.11129079       0.00303157      -0.07331088
Ar       2.33530072       6.29905919       9.54972122       0.06675039       0.07384564       0.00245037
Ar       9.51378737      13.41550655       6.12389466      -0.09861238       0.01240561      -0.00733790
Ar       5.24337635      17.15310193       2.91633029       0.03543167       0.01417453       0.05100978
Ar       8.23671055       1.97596693       4.26767324       0.03801613      -0.03868724      -0.07198881
Ar       5.23285711      14.44110322       0.53666637       0.04357576       0.08711406      -0.02758019
Ar      16.32669586      11.77467018      14.67430833      -0.06458211       0.02693730       0.03009613
Ar       4.31607166       2.35256303       5.99782471       0.04349651       0.08754053      -0.05045957
Ar       9.73877376       3.36002064       7.10181464       0.00110657       0.07863189      -0.04032519
Ar      12.99967409       9.81140733      13.50247377      -0.01449075       0.02345297       0.08361972
Ar      12.66079969      12.56754666       6.55429687      -0.01833364       0.03994080       0.08713253
Ar      10.76363160       1.21649691       1.82541205       0.02870185      -0.09120697       0.03892735
Ar      12.00898303      15.17215027       9.27808688       0.00025434       0.01459273      -0.02517016
Ar       5.64951677      13.10527062       4.22434380       0.08584536       0.00727376      -0.03164862
Ar       2.66105174      11.25894072      16.24467231      -0.01469285      -0.00889561      -0.07952883
Ar       1.78954983      15.76151034       1.05683875       0.00025143      -0.00913781       0.09352340
Ar      13.60692503      15.35315299       2.52304890       0.00973591      -0.01673186      -0.05069418
Ar      16.28826509      13.58079306       0.33710243       0.06161474      -0.03545729       0.10071586
Ar       0.51178388       2.60776809       6.04288782      -0.01212802      -0.01547072      -0.02207530
Ar      11.46885493      11.31062169       9.58738877       0.05929022       0.07049585      -0.02850423
Ar      17.13028775       8.38888233      11.15040560      -0.02526244      -0.09390616      -0.03715749
Ar      12.32476198      11.99730685       2.68508997       0.00079142       0.00383574      -0.04500459
Ar       7.40474742      13.43004440      14.32273852       0.01434079      -0.07017246       0.00977161
Ar      15.11366941       6.63224305      13.53503222      -0.10563843      -0.00291187      -0.02931254
Ar       1.81390016      13.05734270       6.85455026       0.02097939       0.01921992       0.00815290
Ar       6.82879423       9.28117471      13.59928170       0.03945070      -0.06017044      -0.01281375
Ar       9.06079254       0.01269043      13.61077738       0.04172624      -0.04003914      -0.07183622
Ar      12.02344435       4.07853647      10.51834614       0.00148306       0.11532349      -0.01402489
Ar      12.97605548      12.95329171      15.15014579      -0.05723157      -0.05412888      -0.12189348
Ar       2.45456324      16.03258078       8.53107930      -0.00610734      -0.07932254       0.04248262
Ar      16.27802199      16.35160135       7.56239806       0.02197191      -0.00109948      -0.00203376
Ar      14.62999584       2.86625126      15.18340879      -0.03399944       0.08166801       0.07197987
Ar      11.07568982       4.51595728       4.10593074       0.02718946      -0.03214992      -0.00010909
Ar      16.84727642       6.32565980       7.49269856       0.00560737       0.01537231      -0.03412561
Ar       0.95827655       7.14753880      15.41982882       0.04731050       0.00915277       0.04305919
Ar       8.91751637      12.13878959       2.66860616      -0.06834684      -0.04261313      -0.05523238
Ar       2.78689886       1.74208870       0.93902126       0.01176780       0.03157568       0.04261943
Ar      15.81883080       1.03290588      11.40711940       0.04908885       0.10133816      -0.00772670
Ar      12.17613027      17.24323143      16.28635046      -0.08577136      -0.02023548      -0.03187858
Ar       9.65275418       7.29845777      12.40025947       0.02211942       0.04158558       0.01290925
Ar      11.48679013      15.15235335      12.83242384      -0.01301127       0.02906254      -0.00024874
Ar       9.80814817      11.49691621      12.87399941      -0.05278088       0.05980646       0.00064555
Ar      15.83828158      13.80868413       4.65933228       0.04805968       0.01782349       0.01870324
Ar      15.69519244       9.32948861      16.98111050      -0.05415712      -0.18435525       0.09303412
Ar      11.42753383       9.94087762      16.49020529       0.00633435      -0.00702696      -0.00312597
