108
Lattice="17.35 0.0 0.0 0.0 17.35 0.0 0.0 0.0 17.35" Properties=species:S:1:pos:R:3:momenta:R:3 pbc="T T T"
Ar       2.11909311      11.22072099       5.48489979       0.00689402      -0.05103418       0.04282774
Ar       2.21352151       0.74895267       7.18166753      -0.03436789      -0.03163972      -0.07426387
Ar       1.39841011      11.21750370       9.14713695      -0.00172556      -0.08280738      -0.05086212
Ar      10.95891401       2.60651964       4.17908073      -0.12007149       0.03294077      -0.00050276
Ar       5.00748635      16.00278437      13.14602497       0.00847928       0.04109792      -0.08294687
Ar      15.32701869      11.99921421      15.39020172      -0.03286755       0.07103026       0.07078659
Ar       1.01795573      15.28428535       2.06684648      -0.00935941       0.01023151      -0.00591367
Ar      13.62714358       5.54334811       9.81708425       0.05450328      -0.12162145       0.03545923
Ar      13.20808740       4.39226010      13.09458113       0.02090354      -0.07155429      -0.07954411
Ar      13.35520703       3.65559133       1.05591821      -0.06138883      -0.01631155       0.00487230
Ar       3.18238114       7.59107468       8.87017515       0.01581606       0.03456946      -0.01365232
Ar      15.51536631      11.30961700       7.60224667       0.10971642       0.02288893       0.00627033
Ar       1.82350893       3.96702485       9.17301430      -0.00105023      -0.04811639       0.07296902
Ar       2.98901194       7.54210119       4.97581796      -0.02089091      -0.02132850      -0.02090204
Ar       4.58770747       1.27803377      10.15800606      -0.00471172       0.01480410       0.07707081
Ar       4.86633970      12.54618134      15.82319432      -0.02436701       0.07125947      -0.00661269
Ar      14.24241515       1.88117522      15.40061380      -0.04040253      -0.04027071      -0.04773062
Ar       1.94841673       1.31995318       1.77262309       0.00575377       0.03570095      -0.01799551
Ar       3.71182617       4.07681082       5.83025882      -0.02194850      -0.02894946      -0.01327065
Ar      13.39644999      10.34912307       3.82293185       0.03101371       0.07002863      -0.00226335
Ar       9.91240135       6.15963987       8.08930221      -0.07004427      -0.02522638      -0.10970500
Ar       6.88115203       8.46775797      10.66935692       0.05773458      -0.03847480      -0.08847937
Ar       5.74776908       4.79039701       8.91338566       0.05157754       0.02532304       0.03026110
Ar       9.28651739      11.72593014      11.37152714       0.01359164       0.03550256      -0.02082408
Ar       7.27939959       8.15513675       0.09911515       0.04305348       0.07882453      -0.00369501
Ar       2.80885219       3.69290823      16.68662821       0.04932782       0.01599922      -0.02132527
Ar      11.13212699      14.34726187      17.07579293      -0.08842077       0.04995182       0.02070169
Ar       9.04040225      11.15613606      17.06216446      -0.04288379      -0.08973398      -0.02945053
Ar      14.49611903      14.47449107       9.75125887      -0.04592432       0.15274461      -0.00555265
Ar      10.86186834      14.46951895       9.95747323      -0.07385897      -0.05929800      -0.08644217
Ar       4.52906825      16.34234727       2.87034932      -0.04902488      -0.06913488       0.09348030
Ar      10.97834622       1.65615094      16.69233862       0.09223744      -0.03281616       0.06999579
Ar       4.91913242      11.21838272       7.48224992       0.01530761      -0.04581897      -0.07848535
Ar      11.29456113       7.83954538      11.76109103      -0.04997390       0.00368660       0.02851567
Ar       2.99883842      10.02149001      12.15943606      -0.07091061       0.03748577       0.03651536
Ar       8.28382357      14.26109308      13.93457354       0.03196359       0.03113333      -0.13517407
Ar       3.36520548       3.80001506      12.67911617       0.08272213       0.03926513       0.05844816
Ar       9.76838836       4.34415707      14.76682324      -0.09387912       0.00092102       0.04913962
Ar      12.60176065       1.90389506       8.35798479       0.04909932       0.06711356      -0.00572782
Ar       1.18223801       0.51160603      11.93507273      -0.01878321       0.05456708       0.01433254
Ar       4.50928673      15.75391890      16.83387721      -0.02488217      -0.03748338       0.06843007
Ar       4.28576873      15.24405347       9.01322109      -0.00886814       0.05376844      -0.04603020
Ar       5.67207816      12.44738464      10.91499410       0.10064931       0.07683317       0.01606003
Ar       0.11800963       0.43839152       4.68171632      -0.02476429      -0.01276804       0.02511432
Ar      16.30738260      11.83215306      11.85465882       0.02413961      -0.04896504       0.00156024
Ar      14.64483664      13.84802065       0.86645101      -0.01983521       0.00688645       0.04748529
Ar       6.97113059      10.21310467      13.91594028       0.03023598      -0.02413113      -0.01701607
Ar       6.66772616       6.56564429      13.83681779       0.16552566       0.00532035       0.09129166
Ar       2.03352576      13.27584786      12.97393028       0.01787189       0.06031643       0.00209631
Ar       2.26854104      14.77895134       5.27836193      -0.03720772       0.02491102      -0.04964896
Ar       6.86066247       8.62051109       6.49852866      -0.00460418       0.00745138       0.05346274
Ar      13.30119529       5.98063550      16.45894376       0.01939195       0.05516689       0.02246624
Ar       2.10589892       9.73547763       1.16918932       0.02077999       0.00656331      -0.03756761
Ar       0.81564226       9.85355416      15.04425096      -0.03175753      -0.03668017      -0.06365099
Ar       6.27561295       3.12535481      16.55949260      -0.08137222      -0.04625494      -0.02914688
Ar       5.63973226      17.20156227       6.45229611      -0.04630056       0.04259729      -0.02606860
Ar       3.23247570       6.48848535       1.55178659      -0.03292265      -0.02781884      -0.01968020
Ar      16.36792698       0.31913634       8.83998251       0.00443879       0.01892511      -0.07892787
Ar      17.04370854       4.01561753      12.93133851      -0.00009621       0.00165364       0.01176166
Ar       6.79738945      14.04099911       4.34038255      -0.01233364       0.04408462      -0.03120849
Ar      14.54728417       0.59710178      12.01025480       0.00274953      -0.03676726       0.03411414
Ar      12.24827272      11.80977963       6.82054821      -0.04044514       0.06212072       0.00675370
Ar      13.48855537       0.66909199       5.02034953      -0.02209480       0.02092583      -0.01501144
Ar      12.72171878       7.54762477       2.18539392       0.01680956      -0.03366502       0.04195630
Ar      16.08536204       5.19112985       7.39156388      -0.08723981      -0.01546312      -0.06466893
Ar      10.68378792      16.21685869       6.73480298       0.02848616       0.00514656       0.06092485
Ar       4.85445401       2.95698188       2.51188198      -0.01751647       0.00791481       0.04879053
Ar       7.67887983       0.96506922       2.07074369      -0.12024975      -0.00281906       0.09711481
Ar       5.54671290       9.76541061       3.48680015       0.08854348       0.10159164      -0.08397094
Ar      12.44961227      10.36954052      17.14887754       0.10818695       0.07413253      -0.00467354
Ar       7.14327774       2.21947973      12.52789181      -0.02956950       0.05501036       0.04999285
Ar       7.56561638       3.27212280       5.43110990       0.08694237       0.05370774      -0.02453447
Ar      16.51784229      15.32236112      13.70883871       0.00182343      -0.00929410      -0.06194309
Ar      10.23563381      11.88224428       3.06382874       0.07879603      -0.10608672       0.13842298
Ar      10.47334143       7.91645816      15.68554865      -0.06621212       0.06038356      -0.02093443
Ar       1.02077020       7.07151328      12.64482974       0.04336460      -0.09020933       0.03906226
Ar       3.94819673      12.58991643       1.94446758      -0.03306629      -0.06803634       0.10805739
Ar      10.87708519       1.03875174      13.07290693      -0.04986698      -0.00224177       0.00113420
Ar       1.26725482      12.93720127      16.77381507       0.03127733       0.02474128       0.06096452
Ar      16.42549275      14.44934981       6.68831588      -0.03371092      -0.11143595      -0.05071437
Ar      16.20790131       8.03655459       1.27577451       0.00765450      -0.07527727       0.05062090
Ar       9.90864409       3.76622048      10.64640767      -0.01986974      -0.08294545      -0.12677604
Ar       8.18264148       1.77725319       8.60486393       0.07595442      -0.00548520       0.01133117
Ar      16.40754580       8.43616861       5.25970412       0.03496774      -0.00727756       0.01988693
Ar       9.85443820       9.75691746       8.50923066       0.11521896      -0.10747180       0.02442753
Ar      11.41953410      12.03449334      14.51527774       0.09583870      -0.08615328      -0.01400963
Ar      16.82727470       4.09276183       0.27461171      -0.08607200      -0.01621412       0.01742473
Ar      13.52892507      14.03170982       4.16294195      -0.01480585       0.00141515      -0.01375410
Ar       9.25307144       4.55847920       1.21265435       0.00043921      -0.01864998      -0.00052257
Ar       7.75876472       0.17503797      15.44243625       0.04328978      -0.00379381      -0.02724434
Ar       6.89672926       6.46595227       3.39123412      -0.06667078       0.16510992      -0.06807171
Ar      11.09134506      16.46600763       2.43368786       0.00237981      -0.02813251      -0.10538911
Ar       4.19347543       8.61873954      16.11745827       0.00018947       0.02436805       0.04031503
Ar       0.91028716      14.78685130      10.02374056      -0.03252542       0.01875885       0.01734658
Ar       0.14998285       4.68383411       3.81734604      -0.08073310      -0.05487227       0.03054733
Ar      16.29763110       8.25969608       9.99017656      -0.03593487       0.02227351      -0.04499060
Ar       8.24528503      12.68480288       7.37217415      -0.07108310       0.03014555       0.09312699
Ar      13.06939535      11.06074476      10.50719369      -0.05550396       0.03692185       0.01661653
Ar      10.30791830       7.93544337       4.70737952       0.01722280       0.00552073       0.01739928
Ar      15.45877062       0.18569355       1.60620335       0.01877107       0.06429473       0.06978802
Ar       0.58552598       0.33599061      16.17505325       0.07418456       0.02248259      -0.06894015
Ar       7.37499551      14.84495265       1.05755010      -0.02219493       0.01406353      -0.02588938
Ar      13.96684279       9.24046395      14.33555601       0.08947050      -0.12799624      -0.01516776
Ar       7.99813538      16.34969293      11.08188225       0.01539460      -0.04113109      -0.06143825
Ar      12.78665018      15.28190271      14.00675598      -0.05942688      -0.02313782       0.04296265
Ar      13.30889322       8.56633835       7.72606641       0.04920199      -0.00514394       0.13146591
Ar      16.51136810      12.07858120       3.52083057       0.07967042      -0.02524464      -0.02625015
Ar      12.65790087       5.08833293       6.06159781       0.01703603       0.02060618       0.00323985
