108
Lattice="17.35 0.0 0.0 0.0 17.35 0.0 0.0 0.0 17.35" Properties=species:S:1:pos:R:3:momenta:R:3 pbc="T T T"
Ar       0.09931946      11.78222551       1.83244048      -0.06338286      -0.02958456      -0.05686600
Ar      17.23346277       0.37146728      11.42395412      -0.00066885       0.04093366      -0.04283713
Ar       2.59534046      15.81424737      10.08070615      -0.04813470      -0.03376303       0.08991437
Ar      13.29337328       0.39491745       6.71815303      -0.08921666      -0.10135304      -0.02172448
Ar       3.48424097       2.49940979      12.10718063       0.08146892      -0.09179463       0.10410423
Ar      11.62579885       8.67856504      12.86599554       0.08284183       0.06211819       0.00167576
Ar      13.68668405       5.01568496       1.84408380       0.04250894       0.06256900      -0.05595575
Ar      13.69421229       1.68314533      10.17729163       0.07863330      -0.10961201       0.05743805
Ar       8.89517367       7.53182895      10.68792008      -0.01954022      -0.08924657      -0.07832951
Ar      16.53976301       4.03223054       4.29978049       0.00292516      -0.03363633       0.02195719
Ar       1.27404869      11.20005434       9.13191261       0.00943574       0.07795101      -0.02662116
Ar      15.55584733      15.76550581       8.76527464      -0.02480253      -0.00053459       0.03609893
Ar       3.93733335       9.84817935       6.95184357       0.01817623       0.06781352       0.00430230
Ar       0.93164523       9.81621339       5.06212695       0.01374116       0.01028011       0.00525940
Ar       4.70463629       7.42384066      10.14473020       0.04333970      -0.08975647      -0.04887469
Ar       9.37572575       6.08221414       1.20537590      -0.00255458      -0.07636781       0.01369488
Ar      13.69138635       1.47217372       3.21449543      -0.12251893       0.04451847       0.08428111
Ar      15.64403537      15.98507705       1.56465593      -0.00541117      -0.02203691      -0.04172214
Ar       6.08689361       5.47497342       3.02193010       0.00029327       0.08676348       0.02166828
Ar      11.69772999      14.70749255       2.45717298      -0.02250971      -0.17833532       0.05470900
Ar       9.78870397       2.05373709       5.59579162       0.03322782      -0.15027508       0.01537203
Ar       6.91823748      10.66192599       9.49271720       0.04996480       0.06597771       0.03854929
Ar       4.33878011       9.43423551      13.47577664       0.10666768       0.02397960      -0.15692397
Ar       7.27816976       7.48269253       7.28900451       0.10428332      -0.00161008       0.01114594
Ar       9.67064933       2.32990416      15.58720050      -0.07117648       0.05737416      -0.04050446
Ar       6.37070897       3.79843720      16.58348862       0.04244898      -0.06625781      -0.06027854
Ar       9.06454021      17.11606149       1.16513390       0.01813095      -0.05104255      -0.04508461
Ar      12.61730558       8.08409596       0.85469099      -0.02767192      -0.00751721       0.10433799
Ar      11.89301365      14.37645835       8.07759603       0.03213849       0.00933468       0.03911922
Ar      10.85028397      11.44632350      10.41268958       0.03626932      -0.00845336       0.07100850
Ar       3.52181447       4.28962338       8.00989709       0.03344595      -0.14264663      -0.00440046
Ar      12.89246082      14.98844374      16.42189056       0.01890907       0.04711367       0.01592354
Ar       7.40651497       8.68080239       4.17299609      -0.00776535       0.04935040       0.00075681
Ar      13.30665634       5.59953637      12.28744516       0.07073892      -0.02261449      -0.02897689
Ar       3.26898310       6.51174148      15.45539524       0.07748634       0.11466205      -0.14916443
Ar       9.45854924       6.53101581      14.57531647      -0.01953004      -0.00389522       0.05340393
Ar       1.71514990       7.36731757      12.15824586       0.04294784       0.05042946       0.02136356
Ar      10.83052668       2.37899053      12.05352127       0.03734398       0.06191882       0.00904686
Ar       9.49248789       0.72632953       8.92487618      -0.09536585      -0.00982484       0.02009046
Ar      17.20339804      14.14662567      11.86222208      -0.09174497       0.10806479      -0.07099326
Ar       3.34330905       1.79993238      16.93254091       0.01057409       0.03128225      -0.08844240
Ar       3.69805967      16.38454358      13.26393944       0.06750029      -0.09037588      -0.04508538
Ar       7.63010041      15.24479607      10.85436774      -0.02634032      -0.10316493      -0.07047065
Ar       1.49032931       6.07564562       1.32894137      -0.04204624      -0.00217133      -0.00699337
Ar       0.28241826      10.49449209      12.72467828      -0.02306686       0.03774242      -0.01519738
Ar      13.93903202      14.29915824       5.31151898       0.04486649       0.00365489      -0.07425684
Ar       8.40834027      10.28529441      13.43519000       0.00245339       0.06538852      -0.01651822
Ar       5.87576228       4.98833177      12.92089039      -0.06870666      -0.00944011       0.04670392
Ar       2.70828586      13.03594304      14.45395201      -0.06550743      -0.05786798      -0.00065426
Ar       4.95885115       0.89447936       9.01293822       0.11010314      -0.00639728       0.01196205
Ar       4.68511156      12.85726132      11.01691117       0.01740128       0.01682241      -0.01999484
Ar       1.22779198       3.82076512      14.33432298       0.06546223      -0.05533216       0.08291353
Ar       6.55351168       7.91022532      16.01311242      -0.06086710       0.05226381      -0.03666524
Ar      15.67199451       8.45277732      10.78478911      -0.06196357      -0.04448411       0.04058309
Ar       3.46985481      16.26166102       3.31620912       0.02374348      -0.00904883       0.12113714
Ar       1.83223185       6.55158152       4.88258615       0.03603210      -0.04757502      -0.08524465
Ar       3.15578845      10.77894499      17.13664119       0.09228580      -0.02830791      -0.00771783
Ar      14.09112387      16.64976289      13.45894994      -0.01848688      -0.00363211      -0.02414876
Ar      16.91355733       3.15856805       0.55882502      -0.02041473       0.04963428      -0.05239633
Ar      11.26852881      10.95093574       6.40565071       0.00098145       0.08331757      -0.02805987
Ar      14.50696638      11.99813923       9.78560772      -0.00163108       0.08319599       0.00081483
Ar      15.83132620       5.00135942       7.90745048      -0.01112601       0.01666482       0.08513871
Ar      16.98500962       1.73156653       8.07857101       0.22196855      -0.01602051      -0.01092486
Ar      12.84849624       3.99463579       5.97963501       0.02554739       0.00428230      -0.04560891
Ar       1.43150304       7.71490037       8.40158920      -0.03196883      -0.04574655      -0.05989679
Ar       8.48670005      13.10333534       7.34553484       0.01283148       0.04274454       0.09255908
Ar       3.50206189       3.02438159       4.20397987       0.01398601       0.06856105      -0.05335701
Ar       6.44665329      16.83251104       6.08437165      -0.11014056      -0.03408679       0.05240811
Ar       5.45427406      14.47863081       0.96938090      -0.04502948       0.01334493      -0.01694723
Ar      14.29772465      11.45741247      16.57784653      -0.06611238       0.07356774       0.08907492
Ar       5.76428334       1.52688647       2.39651825       0.02298592       0.06621826      -0.08151966
Ar      11.21214824       4.45263318       9.21655029      -0.09370711       0.02671325      -0.00725672
Ar      14.08007179      12.03913016      13.15761976       0.00711715      -0.02296448      -0.14350881
Ar       9.83020827      16.00156474       5.17838049      -0.10739870      -0.00498792      -0.00493791
Ar      10.81804072       2.82699870       2.16751004      -0.00002573       0.04995998       0.01304442
Ar      14.93623774       2.62418045      13.25680480       0.04819761       0.00437335       0.01974050
Ar       6.42812773      10.62717907       1.07148898      -0.02774770      -0.03080968      -0.06359660
Ar      11.08155859      12.78185334      14.36881880      -0.00183756      -0.02416436      -0.02050897
Ar       1.79082329      15.00929834       0.12443998       0.03137015       0.04076233      -0.01284927
Ar       7.60782323      12.78849404       3.56279366      -0.03697464      -0.02719357      -0.02560573
Ar      16.34428900      14.03181984      15.39119731      -0.03326063      -0.05835456      -0.05514840
Ar      12.63155816       7.78018727       8.75957489       0.04574625      -0.03424904       0.00276270
Ar       7.40272325       3.89284424       9.54709008       0.04159905       0.04635609       0.00486859
Ar       0.26264763       9.62792614      16.00272530      -0.01916097      -0.02367946       0.04820184
Ar      10.43269970      10.03566565       2.58853428       0.02036900      -0.06135221       0.06242652
Ar       6.50128768      14.05960447      14.48321921       0.06414116       0.03907666      -0.04661050
Ar       0.87860088       4.20018722      10.22507100      -0.01649579      -0.04124786       0.08798810
Ar       0.57804509      14.13818889       5.26033808      -0.03978767      -0.00007187      -0.03042554
Ar       9.73268130       5.53054871       5.12698303      -0.04845665      -0.00418286       0.03154697
Ar       6.31235080       0.06987976      15.96782487      -0.04970639       0.04602463       0.02795537
Ar       6.74834295       3.22613406       6.01261319       0.00520571      -0.15706576       0.08839241
Ar       9.34862817      12.96699175       0.06878196      -0.09826717      -0.00444575      -0.03571544
Ar       4.19933051       8.49789571       2.67764635       0.03611604      -0.04934376       0.01201941
Ar       2.60486871      17.08009774       6.80864266       0.00422569       0.03025654       0.03453955
Ar      12.84566187       1.01862935      16.69736282      -0.00805220       0.00015176       0.02372040
Ar      15.39323160       9.02808063       6.96288844       0.02404422       0.09699120       0.02912631
Ar       4.87150430      13.57483043       7.40184061       0.04791694       0.02615528      -0.00778873
Ar      10.34029044       9.82289942      16.30015961      -0.01267072       0.08570991      -0.04457120
Ar       3.99715776      11.93414866       3.33016814      -0.07599473      -0.06606751       0.01775452
Ar       0.41564761       0.78357761       4.17475582      -0.02114447       0.05207992       0.08324491
Ar       0.39457316       0.13211128      15.53090562       0.04747210       0.03966114       0.05362472
Ar       9.40413992      16.13935248      14.72601480       0.02526354       0.07135016      -0.03223411
Ar      13.43329883       4.24782788      15.72157960      -0.00252936       0.06519060       0.05862969
Ar       7.46027062       1.13546966      12.37795454      -0.10566401       0.03151498      -0.02810177
Ar      11.29015257      15.34736504      11.64618295       0.04866070      -0.02566250      -0.03845929
Ar      14.00135937      11.31138895       3.56153132      -0.01564070       0.02213417       0.04032387
Ar      16.09108395       8.19362998       1.96947046      -0.08663816      -0.03361884       0.03819616
Ar      12.97775453       7.08532658       4.41625926      -0.07697210       0.01897154       0.07005301
