108
Lattice="17.35 0.0 0.0 0.0 17.35 0.0 0.0 0.0 17.35" Properties=species:S:1:pos:R:3:momenta:R:3 pbc="T T T"
Ar       0.38499557      12.17556450       2.16164974       0.02090438      -0.07149714      -0.01280963
Ar       0.05663687       0.15771401      11.63877357      -0.05600777       0.03478025       0.05364518
Ar       2.59020487      15.48230315       9.74434267       0.02923232       0.05986921       0.01617226
Ar      13.21732879       0.43519815       6.30374922       0.09539665       0.08740466       0.11607463
Ar       3.32088142       2.90615405      11.52741103      -0.00450894      -0.06067851      -0.00466581
Ar      11.82841650       9.19430213      12.84702483      -0.08210683      -0.14463069      -0.00500584
Ar      13.71477515       4.35440980       1.91508673      -0.00865413      -0.00643712       0.02114652
Ar      13.46246457       1.94364362       9.85066840       0.00207386       0.03821510       0.01109193
Ar       8.73310946       7.76299309      10.80305211       0.03494589       0.04036099       0.03974594
Ar      16.46105614       4.32415483       4.07402916      -0.00478943      -0.01919233       0.02973698
Ar       1.16602571      11.25254155       9.27888561       0.00418686      -0.06779467       0.02642846
Ar      15.73311079      15.32233963       8.64443343      -0.02544923       0.09314321      -0.00352656
Ar       4.12701515       9.46374182       6.75767351      -0.00538707       0.02866713       0.05281841
Ar       0.77097677      10.28929185       4.97118307       0.00158397      -0.04848731      -0.03874416
Ar       4.56248745       7.96640773      10.61340540       0.03478305      -0.03835959      -0.10036253
Ar       9.43999993       6.68863060       1.11180909      -0.03316820      -0.05695454      -0.00606658
Ar      14.47250928       1.26447660       3.00514468       0.01054880       0.02451818      -0.04375659
Ar      15.85331847      15.52157236       1.46468886      -0.03842531       0.16438989       0.07423907
Ar       5.96908245       5.16291506       2.50489870       0.04186167      -0.04821629       0.00223079
Ar      12.17537513      15.95597760       2.14316394      -0.10225720      -0.15781682       0.01115759
Ar       9.82926568       2.26408631       5.55777595       0.02267944       0.02262792      -0.00185216
Ar       6.76623275      10.36535701       9.20235321      -0.01594469      -0.04845851       0.03730372
Ar       3.61392569       9.40812041      14.53453436       0.07628682       0.00917408      -0.11022973
Ar       6.57681169       7.06126391       7.62929254       0.01741604       0.05102600      -0.06281595
Ar       9.78861573       2.18635972      15.84959072       0.02882433      -0.00579084      -0.02250248
Ar       6.20933431       4.17333993      16.72600952      -0.01583954       0.04708304       0.13355020
Ar       8.88019000      16.99107987       1.28682928      -0.01572188       0.11684935       0.03894550
Ar      13.37392509       7.68132423       0.31033282      -0.08545023       0.14258629       0.03398202
Ar      11.44624360      14.41086016       8.43459626       0.03254356      -0.01668895      -0.08419499
Ar      10.45683908      11.41817805      10.01491407       0.06923968       0.03328427       0.02032095
Ar       3.81802503       5.26604753       7.85712366      -0.04061361      -0.07321929      -0.06429508
Ar      12.96562274      14.34231698      16.29442723      -0.00879123       0.12060413       0.02771642
Ar       7.52951957       8.52886756       3.81929954       0.02637501       0.00331130       0.04647053
Ar      12.87165148       5.56750410      12.19097231       0.04164963       0.02145892       0.03148189
Ar       3.25582507       5.88605300      15.88409114      -0.03875768       0.05797873       0.02976395
Ar       9.53784525       5.90803269      14.32792730      -0.02972035       0.12006717       0.01985315
Ar       1.43352593       6.89462422      12.36730990       0.00430814       0.00255447      -0.07696890
Ar      11.06031461       2.14510304      12.35956340      -0.08321777       0.00240652      -0.07495166
Ar      10.21040888       0.65004489       8.80929282      -0.08806099       0.02534954       0.00757751
Ar       0.37909695      13.94892506      12.03862031      -0.01737265      -0.09969907       0.04098094
Ar       3.05673051       1.55790651       0.26141547       0.04004510       0.03694342      -0.08757388
Ar       3.28391622      17.13427283      13.75485604       0.04220361      -0.09715921      -0.05765143
Ar       7.55511716      15.35139317      11.02010508       0.05001532       0.04952328       0.01347442
Ar       1.64431309       5.76889857       2.06156891       0.01469197       0.10209848      -0.14488693
Ar       0.70858442      10.37973912      12.68418228      -0.06814465       0.08041971      -0.01930303
Ar      14.07583375      14.42980494       5.39315088      -0.04727323      -0.01190854       0.03357925
Ar       7.84716934      10.09749993      13.43900655       0.14166987      -0.00839515       0.00344844
Ar       6.44464127       5.22973377      12.74318656      -0.05679610      -0.04366390       0.00415672
Ar       2.79417968      13.33563759      14.41962591       0.06119251      -0.01289244      -0.03954979
Ar       4.88080452       1.29272585       8.83172625      -0.02359742      -0.00726523       0.10226769
Ar       4.43323592      12.75577831      11.33220300       0.02181028       0.03315876      -0.02543326
Ar       0.43734059       4.07524884      13.94949659       0.05398579      -0.01344659      -0.01040357
Ar       6.75712773       7.65169263      16.41310825       0.02389983      -0.00253979      -0.03850796
Ar      15.78772855       8.32739777      10.31878643       0.03263385       0.06803137       0.02701224
Ar       3.36590962      16.22758589       2.86945435      -0.05688127      -0.00589379      -0.02104081
Ar       1.74998417       6.43840005       5.42121096       0.02818179      -0.00133394      -0.01459504
Ar       3.25125625      11.23065565       0.18333212      -0.05986774      -0.07962661      -0.06452545
Ar      14.27981832      16.27814834      13.54498364      -0.02343077       0.06622691       0.01186204
Ar      16.96503264       2.60077299       0.81303002      -0.00414889       0.07145014       0.00803403
Ar      11.40391640      10.31487261       6.46239108      -0.02167513       0.05488520       0.03938395
Ar      14.53941264      11.54770421       9.43930729       0.01194471       0.02023584       0.07578642
Ar      15.75882242       5.49631567       7.36319508      -0.02893493      -0.01818680       0.00280908
Ar      16.48654454       1.77216087       7.95816943      -0.12125560      -0.02899917       0.03961763
Ar      12.98480952       4.10180639       5.87789161      -0.01184549      -0.04817242       0.09079846
Ar       1.31693745       7.54756149       8.68739373       0.02621835       0.00695552      -0.01313724
Ar       8.39128852      12.89598312       7.12118060       0.01056422       0.02575723      -0.07735719
Ar       2.78041320       2.84680949       4.91271128       0.10575350      -0.00922632      -0.08245485
Ar       7.07160301      17.10434187       5.72491710      -0.06174116      -0.02780451       0.01474512
Ar       6.04172440      14.38120145       0.78223099      -0.08779861      -0.00248206       0.02871032
Ar      14.45784387      10.84584742      17.07748284       0.01916350      -0.02396737      -0.10635888
Ar       6.17322452       1.13281541       2.66584907       0.00454302      -0.03195782      -0.03684648
Ar      11.12762948       4.72851050       9.16896546       0.13218798      -0.07798977       0.02638331
Ar      14.52233836      12.29766930      13.15483324      -0.05980725      -0.03822862       0.05617779
Ar      10.58722310      15.98187701       5.40646110      -0.05938117       0.00796097      -0.02255453
Ar      10.54380491       2.79776677       1.96511870       0.04703787      -0.03161830       0.01895703
Ar      15.05343139       2.59622280      12.87782250       0.05457789       0.00735818       0.04724236
Ar       6.99725139      10.78374034       0.99937784      -0.07196523      -0.01607388       0.05374905
Ar      10.46828319      12.43525143      14.02933853       0.08393674       0.11869376       0.09307888
Ar       1.90238239      14.56481975       0.29973709      -0.04314583       0.05511871       0.04854548
Ar       8.07147851      13.25565950       3.62807700      -0.05055011      -0.09441432       0.05965092
Ar      16.38853032      14.11004447      15.66773810       0.00356487       0.05584695      -0.00689386
Ar      12.09575802       8.06529698       8.96630186       0.05779774      -0.04063929      -0.07090792
Ar       7.23647916       3.66078897       9.52464642      -0.03082119      -0.00725447       0.00042793
Ar       0.06014774       9.13606430      15.97085742      -0.03112263       0.12149469       0.00987091
Ar      10.31309533      10.54453472       2.56469043      -0.03086641      -0.02433370      -0.04326750
Ar       6.31395897      13.56336184      14.72070848      -0.06497258       0.07503212      -0.00708738
Ar       0.36322701       4.41395494       9.96502398       0.13937790       0.02568719       0.02942010
Ar       0.80861809      13.99927997       5.37226913      -0.00953987       0.05143200       0.00224307
Ar       9.87788639       6.23694096       4.73188384      -0.03345214      -0.09926294       0.04274647
Ar       6.33601624       0.02721886      15.96371415       0.04586265      -0.02292508      -0.03952494
Ar       6.31814457       4.23208141       5.98503269      -0.00282164      -0.02009480      -0.00678313
Ar       9.73726457      13.37314340       0.54468424      -0.02784886      -0.10143110      -0.03226125
Ar       3.67223323       8.62769809       2.70983781       0.05244484      -0.02943003      -0.03241448
Ar       2.55322693      16.95781926       6.19075738      -0.02670827      -0.00431818       0.03926137
Ar      13.20888750       0.74272528      16.89223193      -0.08314244       0.04460777      -0.04041020
Ar      15.37780574       8.68817806       6.75099422      -0.02929927      -0.12616065       0.01047610
Ar       4.40289822      13.42017280       7.34697774       0.06418766       0.02709891       0.02202783
Ar       9.97392698       9.36381748      16.23780015       0.05592471       0.02890413       0.01985963
Ar       4.12472208      12.63135960       3.59087123       0.01564258      -0.08771327      -0.06386843
Ar       0.28417249       0.48461755       3.54385034      -0.00553374       0.01619462       0.04506576
Ar      17.31999246       0.36385610      15.08830772       0.05370542      -0.08267852      -0.01092503
Ar       9.54368868      15.79615315      15.08064347      -0.03112620      -0.00526044      -0.06791349
Ar      13.02782638       4.63064083      15.78123551       0.08240566      -0.07688150      -0.01012569
Ar       7.41592717       1.33295806      12.90921138       0.08545390      -0.07312248      -0.08058352
Ar      11.15041949      15.58554184      11.71447083      -0.01936159      -0.04327944      -0.00516933
Ar      14.11097924      10.91461955       3.15392974      -0.00847803       0.04176534       0.03435149
Ar      16.53276471       8.58002964       1.97371264      -0.05103523      -0.04437313      -0.05746407
Ar      13.43111288       7.58959612       4.17688972      -0.01285039      -0.05426432       0.07287336
