108
Lattice="17.35 0.0 0.0 0.0 17.35 0.0 0.0 0.0 17.35" Properties=species:S:1:pos:R:3:momenta:R:3 pbc="T T T"
Ar       3.97882644      11.04304675       6.75192824      -0.07267423      -0.04884693       0.00927126
Ar       5.20374000       5.14554119       7.45476949       0.05366368       0.02666771      -0.05365684
Ar       9.90546921      12.59646153       7.46344712       0.01137604       0.06920740       0.01920386
Ar       3.32986923       2.49203175       8.47340690      -0.03246331      -0.00237479      -0.02651551
Ar       7.59613814       5.34620788      16.48394082      -0.08051893      -0.05150278      -0.03485105
Ar       6.64710729       7.65060744      10.16690709      -0.02858065      -0.02616763      -0.04369627
Ar      15.92044087       2.84435410       0.49687883       0.07099937       0.02599841      -0.05761862
Ar      15.67923881       4.86556894       5.91997608       0.08202019      -0.11638953       0.08197359
Ar       9.30303466       5.36251346       7.41100634      -0.09202294       0.00955133       0.01059795
Ar      11.97579350       5.15390608       4.29900776      -0.10712519       0.03714567       0.01623522
Ar       1.65078216      13.29016680       8.72100125      -0.06968210       0.04187475      -0.00324142
Ar      15.02515901      14.51132884       9.42362761       0.02193867       0.00269339      -0.04276110
Ar       4.68010869      10.00288471       3.40012256       0.00236731      -0.05860261       0.01003681
Ar       4.71090335       2.03130448       4.69605725       0.10775265      -0.03046937       0.04325296
Ar       4.06553481       5.16607617      10.85257441       0.03774561      -0.05678118      -0.06672702
Ar       4.75745926       4.69383922       1.76998890       0.03642631      -0.03521891       0.04905099
Ar       1.91765099       2.39458164       2.29453660       0.03850227      -0.02748223      -0.05685068
Ar       9.55845466       5.49944014       2.11245136       0.01070383       0.03449862       0.12884512
Ar       7.41368602       5.22536491      12.63269697      -0.04448222      -0.04653142      -0.01849390
Ar       0.81589486       9.99967686       3.22081594      -0.00077796       0.02177011      -0.04257345
Ar      11.88897238      17.31529037       3.24067444      -0.01228587      -0.07517912       0.04588494
Ar       6.96575149      14.46691517       8.42567527       0.03312290      -0.01465697       0.02174030
Ar       0.47795123      15.80309839      11.73385062      -0.03130536      -0.01610589       0.03112542
Ar       4.98618020       7.96567715       0.36336550       0.01700079       0.03012294       0.08087301
Ar      12.58638290       3.28052263       1.49749938       0.09126210       0.01456744       0.00762538
Ar       5.92195546       2.51335310      14.82608930      -0.12102814      -0.01582500       0.04980831
Ar       9.16690857       1.99219687       0.50576665       0.02894857       0.05702313       0.00761766
Ar      10.13678149      14.80595131      14.44030145       0.05091513      -0.04332730      -0.05366075
Ar      16.50769033      14.31783527       6.15477934      -0.04767425       0.08652644      -0.05673530
Ar       6.68763565      14.92763302      12.20305813      -0.04839903      -0.07009739       0.02047939
Ar       4.00565829       5.68826711      14.79814800      -0.01019119       0.02819887       0.04220016
Ar      14.56892584      17.15640190      13.50068153       0.05138148       0.02579026      -0.02254678
Ar       7.37159152       9.08704506       6.79837052       0.03054434      -0.02104567       0.01626704
Ar      12.67942754       6.65624935       7.90773004       0.06403488       0.07830923       0.06616253
Ar      12.21623216       6.36157281      17.02948277       0.04344416       0.01766684      -0.01669381
Ar       9.49752154       8.91292731      17.08781530      -0.05986424      -0.00908162      -0.03597305
Ar       1.68223682       5.81415176       5.55742068      -0.00416275      -0.01269207      -0.09773493
Ar      10.21232410       0.71434801      13.02633880       0.04558135       0.03904696       0.00659906
Ar       9.28827272       1.55948663       8.52884172      -0.01157021       0.13431132      -0.06669530
Ar      17.25333430       1.61545735       9.40251354      -0.02510987      -0.02201428       0.05619180
Ar      14.91001137       6.02448740       2.68097503      -0.09953498      -0.01273895       0.07467577
Ar      11.29920978      13.11422245       3.78685846       0.01232913      -0.09058231      -0.09879880
Ar       4.27027427      15.88765348       9.92913857       0.10503240       0.03138831       0.03388384
Ar       9.57557129      12.39102122      16.52789149       0.11603682       0.04724122      -0.08643745
Ar      11.13653051       9.27233521       5.62393801      -0.00809190       0.00596833      -0.10256553
Ar       0.75301795      16.59401551      16.61523388       0.05803372      -0.12380171      -0.04835834
Ar       3.16417360       8.22596645      12.16264120      -0.07756678       0.05759558      -0.00197832
Ar       0.65539341       6.23684873      15.52712608      -0.02516309      -0.08733218      -0.05392002
Ar       3.72506504      15.83389905      14.04083628      -0.02596779       0.06552756       0.03199087
Ar       6.20350200       1.84405470      11.49466239      -0.03780860       0.05844482      -0.04671192
Ar      13.26622843       2.97983627      13.18118905       0.10139338       0.00663283       0.01380781
Ar       2.63814900       2.15566831      11.95169201      -0.05608566       0.05614581       0.06411328
Ar       6.65597655       6.17369528       4.45010523       0.03888723       0.01466101       0.07934533
Ar      13.59125848      11.11657329       7.17733554      -0.03105726       0.05242972      -0.02351935
Ar       6.24285600      12.06179050       0.80811274      -0.01910579      -0.00736453       0.03164428
Ar       3.34795015       8.08925153       8.43381661      -0.02496563      -0.06941291      -0.15244810
Ar       2.07876413       9.56011289      16.17220409      -0.07031132      -0.12156941       0.02839712
Ar       2.29875300       2.76475672      15.91493449      -0.00102664      -0.00012872       0.01318887
Ar      14.63569453       8.13783994       5.20975514      -0.10145848      -0.05087849      -0.02085688
Ar      10.81195686       9.89716158       9.44868854       0.00351763       0.06590723       0.00426091
Ar      12.32911319      12.53577489      11.83031340       0.04558354       0.03095284       0.02564382
Ar       0.90125279      16.29999662       3.24134425       0.01112681      -0.03259199       0.07454240
Ar       1.28623546       6.21997121       1.93422590       0.07500903      -0.06604202      -0.04113976
Ar      15.20919683       1.90679310       3.66706631       0.08697672       0.04554736       0.07615460
Ar      15.89392612       5.09324419      10.55140611       0.01319411      -0.00636039       0.04991909
Ar       5.69103793      11.42996451      10.02050390       0.05563785       0.03174196       0.08333218
Ar       5.19674334      15.99681355       3.86784780       0.02728550       0.07497777      -0.03630963
Ar       8.96258639      16.27522931       5.85003069      -0.04212556       0.01228122       0.01201903
Ar       8.36307732      14.97862240       2.36702665      -0.07865970      -0.02463638      -0.12122085
Ar      15.25733314      13.76006507      14.69570647       0.10107153      -0.03728695      -0.00505451
Ar       6.16071459       0.26449807       7.41605840      -0.00309010       0.01959968       0.13015027
Ar      10.86856287       4.62173750      10.82415398       0.01712359       0.05259475      -0.04897511
Ar      14.01137319       8.76985648      11.12883800       0.04525841      -0.03287582       0.03380105
Ar      12.68303694      14.66570439       6.62721975      -0.04180799      -0.09602874      -0.00571745
Ar       8.14979965       2.33141156       4.16688221      -0.01459612       0.01734545      -0.00421512
Ar      10.32181379      15.22083857      10.45855381       0.00074161       0.02699773       0.06943410
Ar       6.56745654      12.91866338       4.98972648      -0.04180933      -0.05309865       0.00841770
Ar       1.54150435      13.53664270      14.99540169       0.10619349       0.01361491       0.06605064
Ar       2.87525367      12.44613954       1.39663988      -0.00372209       0.08766952      -0.02699427
Ar      14.85136102      15.21035739       2.96504363      -0.18786757       0.00290960      -0.03588362
Ar      16.73938139      13.51318909       0.69590593      -0.01276772       0.02951819      -0.10249742
Ar       0.66294777       2.09930363       5.60679588       0.00860813       0.02578812      -0.01817105
Ar       8.89728815      11.96244802      12.31957920      -0.05063640      -0.01997885       0.03467801
Ar      16.21480198      11.26428131       9.84861595      -0.01975983       0.06976014      -0.02331568
Ar       8.47604568      10.06968773       3.05060004       0.00893078       0.01037189       0.03761072
Ar       3.34813267      13.21275320      11.97977251       0.02874445       0.03800378      -0.03235465
Ar      14.45932335       6.21324450      14.48714052       0.01279221       0.00538126       0.00690771
Ar       2.18900042      13.20846172       4.87605519      -0.06469339       0.06057424       0.02765524
Ar       6.72965990       8.29259657      14.42834174      -0.02597023       0.02352053      -0.11455975
Ar       7.69913194      16.79492750      16.00997884      -0.06264551      -0.01525560      -0.05819195
Ar      10.46431029       4.52699684      14.69882069       0.05518192      -0.03930654       0.05023192
Ar      13.01890529      11.79108643       0.52488238       0.02327720      -0.02462402       0.00088090
Ar       2.76899858      16.73190740       6.95222142      -0.04531814       0.08770664      -0.04615130
Ar      15.20300851       0.12472598       7.00594402      -0.02536479      -0.09790820      -0.07161245
Ar      16.56872795       3.37680046      13.42153328      -0.04481551      -0.07976212      -0.01766268
Ar      11.70923708       2.26144587       5.95040831       0.00595114       0.05532217      -0.02465579
Ar      16.81811367       7.81012849       7.72679070       0.06513114      -0.14145130      -0.08651786
Ar      16.05970220       9.78830436      14.19360194       0.06906374       0.05714130       0.10947599
Ar      12.05044860      15.04773223       0.19549481       0.00130032      -0.03250811       0.01231019
Ar       4.15944810      16.31930329       0.56731945       0.05947756       0.08099702       0.07223760
Ar      13.17762482       0.60074165      10.10359437      -0.02242124       0.07947688       0.05197974
Ar      12.70968765       1.12317100      16.26692010       0.02650220       0.00009542      -0.01724483
Ar      10.26070160       7.91309968      12.90341198       0.04417608      -0.11874924       0.02802458
Ar       5.73504335      12.56101349      14.69242303       0.00187491       0.01494366      -0.02910880
Ar      12.72542142      10.03720459      15.15191794      -0.04247945      -0.04326694       0.02623535
Ar      14.95308035      11.39397514       3.59073303       0.00021117       0.03779817       0.06697042
Ar      15.65740272       8.32375969       0.18719003      -0.06878353       0.03673493       0.07690813
Ar      11.99746975       8.61145691       2.39142151       0.01600949      -0.04634654      -0.02774718
