108
Lattice="17.35 0.0 0.0 0.0 17.35 0.0 0.0 0.0 17.35" Properties=species:S:1:pos:R:3:momenta:R:3 pbc="T T T"
Ar      16.99326408      11.88847184       1.50725385      -0.02077176       0.04988502      -0.00451002
Ar       0.32196647       0.63591938      11.51220402       0.04428186      -0.06070283       0.02747999
Ar       2.13912068      15.34663248      10.08221264      -0.07463181      -0.04285249       0.04648994
Ar      12.74283566      17.29420021       6.87837538      -0.00795109       0.07989295       0.02141538
Ar       3.34408452       1.74406354      12.71992506      -0.08746047      -0.01476192       0.05849778
Ar      12.40942048       8.89542526      13.09828308       0.01065880      -0.08823364       0.05290186
Ar      13.98606803       4.73812061       2.25593951      -0.10474102      -0.01880640       0.02825978
Ar      13.88470486       1.05088545      10.24648578      -0.04877675       0.02555450       0.02403020
Ar       9.17379492       7.18415828      11.24203050       0.06076823       0.02743844       0.15299622
Ar      16.55155382       4.38509418       4.84501957       0.08236176       0.02448901       0.13460702
Ar       1.24994183      12.16600584       8.85456047      -0.00178735       0.09173228      -0.05365567
Ar      15.64992671      15.80925231       8.18194375       0.11538188       0.04566108      -0.14507067
Ar       4.58386661      10.10140838       6.97909705       0.06254206      -0.07094709      -0.00462393
Ar       0.75909172      10.11552157       4.86365686      -0.05381398      -0.00366211      -0.01157510
Ar       5.02778118       6.65225618       9.65004948      -0.05363640      -0.01452497      -0.03521500
Ar       8.98598013       6.57695804       0.94801062      -0.05750012       0.13606396      -0.03134322
Ar      13.71243265       1.05965096       3.45112885       0.05049419      -0.08109013      -0.03986696
Ar      15.72721305      15.78955791       1.27908798       0.02130573      -0.01523406      -0.01443301
Ar       6.38644793       5.26442101       3.30742182      -0.01773015      -0.06661042       0.01996500
Ar      11.38162493      13.18129913       2.60994028      -0.00547616       0.05365530      -0.03184421
Ar      10.10202250       1.88412847       5.50135070      -0.05555828       0.02779173      -0.01770219
Ar       7.50892961      10.58193916       9.62038735       0.05519024      -0.04025242      -0.08259653
Ar       5.01216519       9.63870729      11.92377330      -0.05239506      -0.11315027      -0.10185223
Ar       7.68176348       7.54980072       7.36769506       0.01198601       0.03877031      -0.00071818
Ar       9.70057980       2.79063420      15.50249918       0.03577651       0.01363395       0.07541144
Ar       6.22261544       4.34398631      16.38335603      -0.03663736       0.13772658       0.03159889
Ar       9.43216631      16.73494260       0.85438598       0.08348721       0.07718700       0.01529345
Ar      12.44166750       8.03133785       0.89695579       0.00527592      -0.05609556      -0.00077772
Ar      11.94928774      14.17192386       8.16348785       0.00526978      -0.00102656       0.02126017
Ar      10.99316144      11.69124863      10.58887630       0.00786395       0.03301980      -0.04723053
Ar       3.54765212       3.38172064       8.03864321       0.00585173      -0.00424934       0.03057736
Ar      12.64785247      14.88541146      16.54193928      -0.06640019       0.01659561       0.00611335
Ar       6.89549046       9.19503512       4.31813999      -0.12078220      -0.00729886       0.06375168
Ar      13.53485502       5.20657669      11.70706458      -0.01204860      -0.05743342      -0.06345643
Ar       3.10850918       7.26318829      15.06362212      -0.06591070       0.07514634       0.03633263
Ar       9.56804994       6.19173430      14.78441137       0.04099050      -0.01920325      -0.04832903
Ar       1.58227270       7.69199574      11.48142048      -0.00975766       0.06790703      -0.10971521
Ar      11.20935805       2.72264648      12.22560810       0.03767244      -0.00462264      -0.03369312
Ar       9.11980002       0.42387711       9.20329799       0.08436490      -0.03769212       0.00820277
Ar      16.36321119      14.38002383      11.66837645      -0.02440287      -0.00356759      -0.04261347
Ar       3.41034101       2.02617525      17.03247699       0.00361489      -0.01196107       0.08346128
Ar       4.24813621      15.67242110      13.58483341      -0.00405660      -0.02416359       0.02086283
Ar       7.38230906      14.77915993      10.79871994      -0.03053859       0.03551748       0.08035150
Ar       1.43745705       6.13200775       0.72572553      -0.00904508      -0.00383889      -0.07880304
Ar       0.19863862      11.00474324      12.16752399       0.02239952      -0.02273610      -0.09341504
Ar      14.47731521      14.78239342       4.81412090      -0.00411550       0.03510037      -0.06242789
Ar       8.34161254      10.82266858      13.09768738       0.07355942      -0.02990651       0.01892218
Ar       5.82110211       5.18955749      12.96856184       0.02381855       0.03416728      -0.06175585
Ar       2.43996410      12.87597723      14.39549868       0.02102880       0.01719881       0.03642058
Ar       5.43085523       0.65875715       9.56727173      -0.09794434      -0.08529486       0.04494513
Ar       4.25882807      12.97631725      11.27647623      -0.05228710       0.00033125       0.01495583
Ar       1.36802353       4.29068823      14.77405732       0.06444292       0.14008703       0.10721732
Ar       6.77664619       8.25211164      15.55057919       0.04863215       0.01655613      -0.07989979
Ar      15.52529282       8.34069597      10.99291739       0.02722939       0.05218781      -0.00262949
Ar       3.56334611      15.85074796       3.44183359      -0.00537524      -0.05823124      -0.09186311
Ar       1.91782691       6.58769153       4.89838650      -0.00779354       0.05832678      -0.00118667
Ar       3.39148763      10.52323102      16.96334986      -0.01132837      -0.01919474      -0.02566607
Ar      14.26938170      16.46873116      13.49214715       0.01199400       0.02439726       0.06197534
Ar      16.42201688       3.05335886       0.07529729      -0.05662442      -0.04624029      -0.02865367
Ar      11.55209215      11.55229522       6.26245826       0.05183498      -0.01361806      -0.01389101
Ar      14.89026043      12.50937693       8.65992555       0.05075962       0.05073745      -0.01856466
Ar      15.34202736       5.45626937       8.60087642      -0.04239165       0.01892246       0.07290157
Ar       0.32540354       2.31293991       8.03279392      -0.10648882       0.09532401       0.01875335
Ar      13.12570946       4.09773864       6.06266879       0.00767103       0.04134105       0.02252702
Ar       1.09807251       7.23230133       8.09075232      -0.02636211      -0.01039045       0.03618446
Ar       8.69281823      13.22766851       7.71233096      -0.04797080      -0.07664083      -0.01513056
Ar       3.31675346       2.87043268       3.94365273       0.00693949      -0.12092992      -0.03585689
Ar       6.54138772      16.36815111       5.97501930       0.10472522      -0.04594296      -0.02222414
Ar       5.45735685      14.37922141       0.71364085      -0.02100684      -0.02001445       0.00004628
Ar      13.35110779      11.45545371       0.36284407      -0.08429974      -0.04820321       0.05014389
Ar       6.70050612       1.79053547       1.76543305       0.10169353       0.01358151       0.01081612
Ar      10.77211065       4.41378187       8.60097453      -0.02154943      -0.05784548      -0.07766408
Ar      14.13482110      11.94791124      12.82223597      -0.05306452       0.05678055      -0.00358208
Ar       9.41413789      15.21841079       4.73286494       0.15413305       0.03763709      -0.10305290
Ar      10.28205057       2.80683783       2.10152774      -0.05254566      -0.03624111      -0.02091095
Ar      15.51585632       2.88946533      13.89783941      -0.06992268       0.03979992       0.06352113
Ar       7.38182973      10.48675508       0.99117121       0.08877572      -0.04144987       0.02368623
Ar      10.76579130      13.04965096      14.06499345       0.00050741       0.03602326       0.03488782
Ar       1.90851094      14.99745862       0.34079724      -0.05048989      -0.01352652       0.00935845
Ar       7.29558190      12.65245893       3.71558692      -0.09710741      -0.04555296       0.01720173
Ar      16.29419847      13.70675846      15.28148861      -0.00512409      -0.02104898       0.08090178
Ar      12.46028066       7.63233974       8.70035407      -0.05650501       0.03582969       0.01011974
Ar       7.14870647       3.98383522       9.84632398      -0.03539396      -0.08465073       0.03359353
Ar      16.98655382       8.93864374      16.38527626      -0.06473422      -0.08386442       0.01249964
Ar      10.33449425      10.10915823       3.23204485      -0.08312470      -0.13193907       0.00456936
Ar       7.35696492      13.81098156      14.10502775       0.07872135      -0.01355000      -0.03309251
Ar       0.88217013       4.22795045      11.42202013      -0.00988520       0.05250177      -0.02655210
Ar       0.66935160      14.05261141       4.91549060       0.08602345      -0.02722025      -0.02709058
Ar       9.39084602       5.21951366       5.02087441       0.04556114      -0.05254638      -0.03575831
Ar       6.46706297      17.25424488      15.83946612       0.07903279      -0.04802733      -0.02254059
Ar       6.73830952       2.54009147       6.30568618       0.05911628       0.03158880      -0.03597884
Ar       8.71161125      13.67684250      17.17879657       0.09420277       0.00481361      -0.04604401
Ar       3.75855361       8.44095394       2.39622344      -0.02998557       0.03921227      -0.04729547
Ar       3.04660879      16.79382568       7.17714460       0.01802024       0.00461298      -0.01427958
Ar      12.81398533       1.52245541      17.17235537       0.01451057       0.05945543       0.03689376
Ar      15.51041720       9.59130838       7.07925415       0.01183897      -0.11885273      -0.06051702
Ar       4.72808546      13.50998115       7.57062269      -0.04908478      -0.00068565       0.06119151
Ar      10.13799447       9.87292341      16.22941388      -0.04979532       0.00304216      -0.01907865
Ar       3.47262421      12.18569775       3.50100367       0.03182465       0.10247889      -0.02690181
Ar       0.07573744       0.43518977       4.50591551      -0.04179230      -0.07068494       0.00735891
Ar       0.04241083       0.23965618      15.32181202      -0.04328270      -0.07594255      -0.04723462
Ar      10.05610537      16.70933191      14.39448910       0.07567609       0.03749193      -0.01061342
Ar      12.87896797       5.37013671      15.62315696      -0.06591587       0.10476622      -0.04229071
Ar       7.58057308       1.37090702      12.87620672       0.13973580       0.02830069       0.11328965
Ar      11.32477200      15.31626803      11.46528425      -0.02118201       0.05374897      -0.02360885
Ar      14.03095525      10.77174870       3.70432721       0.03803094      -0.02388700       0.06809022
Ar      15.90169918       8.07825995       2.81631922       0.06987104      -0.05394404       0.09381958
Ar      12.39444938       8.08221888       5.24993492      -0.04116543       0.07677355       0.07022477
