108
Lattice="17.35 0.0 0.0 0.0 17.35 0.0 0.0 0.0 17.35" Properties=species:S:1:pos:R:3:momenta:R:3 pbc="T T T"
Ar       2.42803928      10.48146781       8.35072657      -0.01927672      -0.06735304      -0.04639170
Ar       6.73229850       4.16736365       8.85294958       0.10362068       0.02245176      -0.03704289
Ar       9.62241891      12.49912834       7.62094762       0.04944317       0.06988859      -0.06211071
Ar       3.04714374       3.42041490       8.46627475      -0.02601135      -0.02718440       0.03251098
Ar       8.37430916       5.46878271      16.65566303       0.08757408      -0.11134502       0.03592322
Ar       7.03120196       7.74219071       9.74338564      -0.00236834      -0.06125585      -0.02824879
Ar      15.44570955       3.50025165       0.52631110       0.04329710       0.01489051       0.04100968
Ar      14.53364254       4.35125766       7.33818851      -0.04741683      -0.10707541      -0.09927113
Ar      10.29116669       6.55253453       6.42153071       0.08392717      -0.03814072      -0.11239117
Ar      12.96563250       5.39745819       4.49961605       0.05850841       0.04906235      -0.07051907
Ar       1.51586740      13.92477477       8.63120195       0.05899709      -0.12480022      -0.02791633
Ar      15.31907834      14.98232376       8.83810247       0.07265268       0.08925606       0.05338720
Ar       4.21768921       9.98223876       4.70533900       0.00839955       0.03353543       0.02601977
Ar       4.78379140       3.22582724       5.39991945       0.09430658       0.00252186       0.07484083
Ar       3.41247440       6.06721626      11.71749369       0.10711456      -0.01909891       0.13827211
Ar       5.83565600       3.88864687       1.68179957       0.02230245       0.04993757       0.03426412
Ar       0.76298350       1.30066360       2.04730324      -0.12217991      -0.06290727       0.01983118
Ar       8.85721932       6.14976101       2.62533853      -0.01143835      -0.08391485      -0.00307612
Ar       7.45817611       5.31104331      12.52310583       0.04297228       0.00921618       0.07429628
Ar       0.96667699      10.44729771       3.35668750       0.00084477       0.05910960      -0.01261126
Ar      11.24485910      17.04464300       3.14599237      -0.01792442       0.04069530       0.06618218
Ar       5.34788901      13.29603642       7.85478723      -0.01577552       0.05219851       0.08327849
Ar       0.35498999      16.49093562      13.04270122      -0.02736508       0.07857114       0.02010154
Ar       5.33323401       7.53893032       1.45878332       0.01357425      -0.08611113      -0.03749757
Ar      11.05604189       3.00865503       2.34069115      -0.01085321       0.01780607       0.09001758
Ar       6.52972314       2.75306071      15.04016633       0.03195562       0.05325992       0.04049481
Ar       9.07524828       1.23209618       0.39131334       0.00886475       0.01271289       0.03459668
Ar      11.15669495      14.96236274      13.93904527       0.00664104      -0.05349354       0.08470082
Ar      16.37296754      12.44768754       6.02181518       0.03342588      -0.14177327       0.10854698
Ar       7.33391100      15.29295809      11.24685107      -0.08138047      -0.00545339      -0.00714064
Ar       4.71913406       5.86484610      15.19102055       0.02123357      -0.01563955       0.00858483
Ar      14.08093294      16.81013657      12.58236852       0.05508774      -0.01861711      -0.01953180
Ar       6.91957897       9.96572292       6.86811363       0.03357547      -0.12102620      -0.02812953
Ar      13.92822135       8.10284425       7.69209935      -0.00007753      -0.04493618      -0.03603727
Ar      12.40376506       6.04126254       0.93008372      -0.01704109       0.05318108       0.00205630
Ar       8.72394164       8.94372745      16.00587026      -0.03957589       0.00286252       0.03101366
Ar       2.98267001       6.29142071       4.35631241      -0.05328037       0.10692600       0.01369903
Ar      10.30331296       0.92778015      11.98584568       0.04889536       0.02700975      -0.04323940
Ar       9.03664174       1.54977390       8.38835539      -0.08421338      -0.08159245       0.03428460
Ar      16.45761666       2.18152884       9.71585460      -0.02110587      -0.00895989      -0.12042952
Ar      16.16991141       5.16200109       3.53094112      -0.07649605      -0.11895030       0.03643311
Ar      10.24390215      13.45196803       3.93952320       0.00920288      -0.02054337       0.00139226
Ar       3.67168763      16.80557080      11.26417630       0.09704202      -0.00442871       0.02166404
Ar       8.42739183      12.24021772       0.74713665      -0.14264815      -0.05684794       0.08252066
Ar      11.74791174      10.67242816       5.44180462      -0.05883000       0.07130644       0.03449252
Ar      17.05463411      16.22604538      16.77128704      -0.06442052      -0.01885166       0.06661292
Ar       2.47370993       9.18677975      13.54136526      -0.01127560      -0.04019473       0.05120431
Ar       0.68624247       5.55659021      14.61833069      -0.07976619      -0.01895401       0.02687725
Ar       4.10955731      16.18409822      14.78585273      -0.07616000       0.08959078      -0.04225479
Ar       6.88489907       1.59221037      11.34418590      -0.00511357       0.08077792       0.01921825
Ar      13.01992959       3.31849045      12.03634256       0.04049033       0.01999015      -0.18098266
Ar       1.89788234       2.80614813      11.80196549      -0.00262717       0.04429521      -0.00234050
Ar       6.46971813       6.86198995       4.85549114      -0.02473442      -0.01481856      -0.05938328
Ar      13.49795699      11.72768712       8.20924882       0.01973430       0.05093141       0.05377002
Ar       4.63240277      11.20890085       1.42321724      -0.04587693       0.00946198      -0.04657811
Ar       4.08073821       6.83745969       7.56007609       0.02987741       0.07313219       0.02263063
Ar       1.87126494       9.34923409       0.03267997       0.04094552      -0.05798300       0.04416634
Ar       2.28748889       1.86708066      15.52227675       0.01424147      -0.04267578       0.06096599
Ar      15.68790648       8.79603155       4.83978181       0.00696397       0.01269282       0.03274392
Ar      10.75668293       9.19758466       9.32147790       0.10831792      -0.02187047      -0.01886903
Ar      13.71824427      13.37729086      11.43901929       0.05906612      -0.03954490       0.02913425
Ar      17.28029627      15.14904060       2.95742037      -0.08468184       0.00895873      -0.02514647
Ar       1.36158797       4.71960501       0.67692078      -0.02159914       0.08560345       0.02931504
Ar      14.62141011       1.49187804       2.96986007       0.01593520       0.00214333      -0.02133760
Ar      15.95557665       5.72272028      11.68776784       0.00161237       0.07946518       0.04254001
Ar       7.30886450      11.49796439      10.45888043      -0.07007622       0.07220012       0.01353755
Ar       3.59505376      16.98935672       3.20345456      -0.04992080      -0.00761815       0.00606469
Ar       7.69207134      15.77791819       5.42289150      -0.00617010      -0.03607993       0.05878628
Ar       6.86699983      15.66405781       2.00020806      -0.01875477       0.06009816       0.02449986
Ar      16.72161165      13.26924753      13.35795582       0.03375045      -0.03435067      -0.04812569
Ar       5.10629052       0.04447415       7.90597382      -0.10338211      -0.00654071       0.01463104
Ar      10.46162664       4.75770373       9.93829415      -0.10326159      -0.00411138      -0.02715808
Ar      13.86028119       9.52353149      11.98769314      -0.02708790       0.05488125       0.00827328
Ar      13.66367770      14.58625829       5.76558969       0.09858465      -0.09048279      -0.13992693
Ar       8.19636999       1.73708045       4.37739067      -0.08334864      -0.06916246      -0.10669739
Ar      11.27772009      15.39946909       8.96366787       0.08488602       0.05312030       0.07884664
Ar       6.73408620      12.76172663       4.29181736      -0.11958242       0.04238337      -0.01263703
Ar       3.30015254      12.35296423      14.92626446       0.09652885       0.04116721      -0.02726720
Ar       2.94537808      14.61716501       0.64453189       0.00717268       0.03706471      -0.00611690
Ar      14.11588263      15.21127891       2.15535414       0.01309712       0.02595212      -0.04759187
Ar      17.05601337      12.18284959       0.01777303      -0.01358447      -0.03631215      -0.09242553
Ar       0.67642042       3.03873102       5.71874014      -0.03079587       0.13401751      -0.05255745
Ar      10.41307870      10.48161869      13.33934193       0.06691798      -0.05789016      -0.01909539
Ar      16.90861048      11.13528284      10.76815044      -0.01496608       0.02888345      -0.03553517
Ar       8.76826339       9.66599683       3.37436767       0.07823255      -0.00966822       0.05088231
Ar       3.71805424      12.85747392      11.31655338       0.04429287      -0.01250180      -0.09442370
Ar      13.96171782       5.78706491      15.07772354      -0.00658895      -0.01466613       0.04815686
Ar       2.94793655      13.28528084       4.77374261       0.09260187      -0.07899097      -0.02610302
Ar       5.87308992       9.29570698      13.34967134       0.06854553       0.04145349       0.02550304
Ar       7.94506842      16.08304007      15.48439173       0.00960322      -0.01744475      -0.15347262
Ar      10.60608735       3.17260933      14.76741881       0.00444617       0.02088955       0.01971011
Ar      13.40899269      13.20034391      16.39726016      -0.06932441       0.01269144      -0.09922173
Ar       1.51649924      16.54996378       6.39327982      -0.09788317      -0.04983721       0.05343206
Ar      15.42637417       0.76648485       6.46034800       0.04554385       0.00886235      -0.04232722
Ar      15.52204472       2.47412167      13.90574085      -0.00676648       0.06716880       0.05375431
Ar      12.05577762       2.16430646       5.79328291      -0.02874008       0.05798370       0.05903132
Ar       0.32688181       6.10667596       7.71019520      -0.02162935      -0.01265071      -0.10552676
Ar      15.95447978       8.60890925      14.93942451       0.01335460      -0.02029369      -0.09491807
Ar      10.41784467      15.01160964       0.23720845       0.05897934       0.03566938       0.07727556
Ar       4.93678112       1.02565576       0.46280938      -0.12134887       0.06452752       0.04809189
Ar      12.67167151       1.41189727       9.19190737       0.04995751      -0.00255088      -0.03157879
Ar      12.91527114       0.46532079      16.88203306       0.03233682      -0.02819886       0.09020735
Ar      11.11492307       6.95246608      12.91673113      -0.03211431      -0.05179564       0.02981630
Ar       7.08175173      12.74600297      14.42997885       0.01617685      -0.01548171      -0.01441582
Ar      12.73760738       9.19008607      15.83308470       0.01500010      -0.01631055      -0.09899082
Ar      14.84620939      11.81447724       2.90549405      -0.04934081      -0.04121459       0.02306162
Ar      15.97266496       8.30837051       0.95276615      -0.05158827       0.08228068       0.02726636
Ar      12.22412079       9.64789718       2.01459167      -0.04288318       0.03575817      -0.04983234
