108
Lattice="17.35 0.0 0.0 0.0 17.35 0.0 0.0 0.0 17.35" Properties=species:S:1:pos:R:3:momenta:R:3 pbc="T T T"
Ar       4.04378293       9.76127929       6.07804522       0.03717430       0.00511117       0.04151628
Ar       6.56321868       5.58694702       7.22266044      -0.04881888       0.00841122      -0.03624579
Ar       6.75466843      12.74424498       3.44746406       0.04772309       0.00388257      -0.09293744
Ar       0.27375677       5.61022068       9.79217528       0.02068479      -0.08550324      -0.00183797
Ar       7.86678895       6.80596678      15.66930944      -0.09204494      -0.01463075      -0.05828698
Ar       5.95627697       9.30573229      10.38082271      -0.02905421       0.02643665       0.01214520
Ar      16.41633430       4.33711622      14.22572765      -0.00290212      -0.07091908      -0.00277618
Ar      13.90954477       5.38759813      10.09338670       0.05741225      -0.02062835       0.00072707
Ar       9.62454100       4.96026309       5.24311022      -0.06493571       0.02215823      -0.02837390
Ar      12.15873500       2.52879243       6.38550939       0.03837092      -0.00193350      -0.04928698
Ar       1.53049545      13.42510605       8.17865028      -0.03424010       0.03290711       0.02505294
Ar      13.74812238      16.70133624      13.41524066      -0.01856996      -0.04744750       0.05852192
Ar       7.29437889       9.63121577       0.14356199      -0.11031931       0.00929197      -0.07578807
Ar       5.08071867       2.44116051       7.32234696       0.06835523      -0.01349000      -0.02032266
Ar       4.15860878       6.15561243      10.31486618      -0.11119647       0.03910620      -0.00733119
Ar       5.77023345       3.01619823       0.25741215       0.07398903       0.01637511       0.04665757
Ar       1.44884141       4.26719241       3.01623375      -0.02421900       0.15508593      -0.04795247
Ar      12.55197148       3.13724930       2.54478073       0.00261600      -0.00411254      -0.04258211
Ar       6.67693440       6.28339334      12.36352781      -0.01595290       0.06980120       0.01283269
Ar       1.34348885       7.96240357       3.57252635       0.09367741       0.01041820      -0.01945328
Ar      14.01584264      15.28486560       6.90495897       0.03003102      -0.02617504      -0.07441440
Ar       6.63098115      15.81612782       7.61997308       0.07410043       0.09539680       0.05820413
Ar       1.94813098      16.99017517      13.37552761      -0.08807635      -0.02873377       0.02753411
Ar       4.84040348       8.03439284       2.79490707      -0.02077410      -0.07021730      -0.04895873
Ar      12.78752630      16.90138039       3.85491592       0.02918750       0.03428183       0.05580817
Ar       6.27355793      16.49848969      13.79950396      -0.03428796       0.13415089      -0.01723964
Ar       8.05398420       3.39863454      14.47552104       0.02361752       0.18584623       0.00364527
Ar      10.14778983      15.08109505      14.09036178       0.12418548       0.02071047       0.04441017
Ar       0.56853292      11.05426577       5.29037993       0.05676304       0.05189671      -0.00469546
Ar       4.51308674      15.58089954      11.07302918      -0.04841804       0.00361479       0.09513546
Ar       4.32040877       6.22673204      16.23584549      -0.02976568       0.00748251      -0.01406116
Ar      13.33344625       0.41963124      17.02372281      -0.03838893      -0.00331779      -0.09430206
Ar       8.08153479       9.05144950       4.43364082      -0.04418307      -0.05233591       0.07316025
Ar      12.55066273       6.88265999       6.48576019      -0.04063735      -0.02440883       0.02790629
Ar      16.00596678       3.52373331       0.25698810       0.05170639      -0.01848500       0.05589461
Ar      14.33691787       6.95496016      17.01360964       0.00080131       0.07067076       0.01270069
Ar       3.16214945       5.21518175       6.56757515       0.02575658      -0.07043956       0.03494241
Ar       9.26450516       1.02698480      11.83778454       0.04672719      -0.02902457       0.05979965
Ar       6.12422817       2.56910620      10.64000582      -0.08620984      -0.07093718       0.10644392
Ar      16.25415789       1.70601226      11.67072735       0.00985033      -0.07274033       0.00581226
Ar      15.64826807       5.27845836       6.78757535       0.02971257       0.09103343       0.06200300
Ar      11.33350716      12.03801595       4.39118134       0.00199740      -0.00909307      -0.16106938
Ar       3.16082111      16.44316333       7.73684845      -0.01629340       0.02334926      -0.11481158
Ar       7.63673551      12.97030361      16.07876758      -0.08557974       0.04703464      -0.03634071
Ar      11.77538923       7.60943701       2.89372522      -0.04737939       0.03852215      -0.04291981
Ar       1.76268086       2.80633548      16.40985820       0.11580085      -0.03192902      -0.14351156
Ar       5.24188304       9.67060744      14.65256001       0.02521653      -0.02573729       0.04694877
Ar       0.98620852       6.94546083      16.72806239       0.04502587       0.03394445       0.05119340
Ar       3.92928842      13.78401927      14.35841244       0.03714774       0.05768304       0.02562323
Ar       2.21972555       2.45307344       9.64972085       0.01057982      -0.07012326      -0.01008823
Ar      12.58759590       3.13732354      12.43698462      -0.03223975      -0.01098109      -0.01895830
Ar       2.32158530       3.24703746      13.17524094      -0.00223597      -0.08673741       0.08292218
Ar       9.00053257       5.10706019       1.54215346      -0.05124207       0.02195499       0.14267222
Ar       8.13590230      11.88843381       6.77587171       0.04223926       0.06927338      -0.01419644
Ar       2.84286884       9.98790305       0.58185128      -0.08227165      -0.10115861      -0.03340047
Ar       2.06314105       8.83921314       8.59730864      -0.04436525      -0.02271241       0.10729845
Ar       0.73888718      13.30461204      16.75628036       0.07409307      -0.00104907       0.08530313
Ar       3.48579827      16.54833113      16.46470533      -0.02226472       0.03800361      -0.08301658
Ar      14.24805936       9.91455016       5.14876364       0.00974297      -0.03036301      -0.04377292
Ar       9.42866841       8.14628865       7.87613565       0.03886155      -0.05228245      -0.05773661
Ar      13.26238189      13.43173407      10.76985124      -0.08922019      -0.04843035      -0.02509059
Ar       2.94089403       0.85982802       2.88606972       0.01743730      -0.03118200       0.01348166
Ar       5.97198600       3.70903254       3.91881377      -0.05606580      -0.01285837      -0.00878514
Ar      15.63058882       1.53141770       3.12723346       0.05220256       0.02869278      -0.10807074
Ar      15.46893126       8.66224532       8.07451426       0.02766164       0.03316203       0.02411996
Ar       5.17632207      12.31895489       8.52198167       0.05728952       0.00045902      -0.01499470
Ar       4.27423102      12.95994641       1.19177510      -0.05914059      -0.04120449      -0.06008722
Ar      11.13363198      13.81716838       8.13481003      -0.00149096      -0.01304316      -0.04623501
Ar       9.60970782      14.84129377       4.07723726       0.03966454      -0.03510705       0.04932580
Ar      11.58494863      12.32291619      15.32479795       0.03512423      -0.03136736       0.04278290
Ar       5.86900193      16.35660396       3.99528071      -0.05158328      -0.05615631      -0.04405101
Ar       9.96272125       4.27386884       9.30515368       0.06041424      -0.02316826       0.04405266
Ar      12.37763839      10.36071871       8.16093330      -0.01943292      -0.10223330       0.06830685
Ar      15.34476852      12.18412863       8.20084627       0.04669849       0.05530543      -0.02990349
Ar       9.52889267       1.24785196       4.43679397       0.07959722      -0.00177110      -0.10707063
Ar       8.88434436      15.34291021      10.36414988      -0.05502446       0.08309135       0.08388191
Ar      10.02565119      11.66452392       1.14175302      -0.08373575       0.13020472       0.05297020
Ar      16.85153239      17.17578231      16.89078416      -0.08192846       0.02551800      -0.02357949
Ar      16.91036451      10.38362428       1.93654611      -0.04231035      -0.04948471       0.05720747
Ar      17.20090798      15.72461314       5.92344070      -0.09453675      -0.05707769      -0.06797695
Ar      14.53044687      14.22971241      16.63320473       0.02528817       0.03129193       0.05828825
Ar       0.79178740       2.24271547       6.07959792      -0.02043529       0.02364007       0.13898896
Ar       9.16215193      11.16705063      10.34747163       0.07647076      -0.04027434      -0.04904926
Ar      16.67545709      14.60351526      13.48731649      -0.07978529       0.00982690      -0.10367244
Ar      10.73908146       8.53561722      16.54633183       0.01846147      -0.03046177      -0.00032470
Ar       2.69223899      11.72298142      11.01063022      -0.00349051       0.00477733       0.03187589
Ar      15.32169178       7.87625213      12.58295104       0.02985498       0.06084808       0.03766680
Ar       3.57353560      13.09640882       5.01352995      -0.03800803       0.01107550       0.02148848
Ar       8.90910425       9.24332887      13.21699134       0.01841297       0.04330394      -0.05991398
Ar       7.14314542      16.18015321       0.41728378      -0.02442279       0.07966257      -0.09812212
Ar      11.46450722       5.29639338      15.87235244       0.01317996       0.00942216      -0.02811478
Ar      13.38439635      10.61786946       1.26988348       0.06905971      -0.04910623       0.03633791
Ar      16.15206317      15.85517485       9.69616779      -0.04599882      -0.01488381       0.12344880
Ar      15.47975372       1.11985093       7.58142943       0.02563527      -0.05564986       0.03639364
Ar       2.35723331       7.28114033      13.28168562      -0.04539159       0.06747901       0.03249321
Ar       8.71192614       1.40260099       8.04322834       0.03702841       0.01368073      -0.02403558
Ar      16.66147675      11.21429533      11.39531051      -0.02864733      -0.03151814      -0.03706827
Ar       1.30630814      10.55025606      14.40395461      -0.01889448      -0.05963042      -0.01480935
Ar      11.22523651      14.79170778       0.77761768       0.08685242      -0.01436464      -0.04092547
Ar       1.20718440      14.89251692       2.68140683       0.06414849      -0.03979335      -0.06942280
Ar      12.58427408      16.98541222      10.15220274      -0.03586429      -0.04206270       0.06057359
Ar      10.04907547       2.01004902      17.18856841       0.01079729      -0.01344528       0.08721972
Ar      11.00453601       7.10209995      11.22411781       0.11019496       0.08793143       0.00228654
Ar       6.96345038      13.38538193      12.65962695       0.04576665      -0.11769986      -0.02238055
Ar      12.41553687       9.81204858      13.02153056      -0.06457454       0.02866938       0.04150234
Ar      14.35182368      13.62374808       3.15772127       0.03508732      -0.03371168      -0.00870261
Ar      15.31245177      10.38465971      15.54993263      -0.04448100      -0.01238185      -0.01977666
Ar      14.95966339       6.00900674       3.25316728       0.02585433      -0.02616285       0.00132365
