108
Lattice="17.35 0.0 0.0 0.0 17.35 0.0 0.0 0.0 17.35" Properties=species:S:1:pos:R:3:momenta:R:3 pbc="T T T"
Ar       0.28602449      14.79718028       7.81892892      -0.03102466      -0.05138734       0.01768946
Ar       9.20481512      10.62678813       4.01814853      -0.04442223       0.02375141      -0.00562183
Ar       4.74538964      11.87312411       2.25568742      -0.08181209      -0.01542810      -0.00564117
Ar      16.33887520       8.61169612       9.20092334      -0.07632738       0.00942133       0.00517151
Ar       6.41841750       1.57317417      13.43061650      -0.02557767       0.08661374      -0.12140869
Ar       3.45386702       4.20400821       8.50030985       0.01404548      -0.01032437      -0.00549710
Ar       0.68957015       5.48870064      14.05490595       0.00614276       0.00265523      -0.00572606
Ar      14.51661336       5.71917581      10.72640780      -0.07778590      -0.01977614       0.06214584
Ar      10.73378973       4.39817431       5.17543307       0.03823946      -0.03733717      -0.02962096
Ar      13.15930523       2.50893788      11.15374882      -0.04382708      -0.01453661      -0.07039023
Ar      14.74665458      11.83938262       9.71942641       0.03126302       0.11543993      -0.09597523
Ar      11.74006235       2.65408440       0.63531044      -0.07784977       0.02840996      -0.02760592
Ar      11.72769377       9.21035136       1.89634675       0.00225004       0.09022388      -0.00140893
Ar       7.08684183       2.69507351       8.13123214      -0.06998532       0.01271983       0.06149404
Ar       8.10230009       6.14087750       7.68586050       0.02988769       0.00593471      -0.06975138
Ar       3.30064501       0.19963459       0.85413650       0.03879862      -0.16918314      -0.01848659
Ar      17.14549707      17.01177577       2.89580440      -0.03796227      -0.03383115      -0.05115382
Ar       8.62697469       7.07119283       3.04596582      -0.03705107       0.08037213      -0.01505387
Ar       7.84459509       4.54675312      11.20384848       0.03163647       0.03800716      -0.11005079
Ar       2.18017352       6.08358004       3.80406953      -0.01187256      -0.03448366      -0.01802146
Ar      14.58422879       4.55800058       6.97025103       0.01071447      -0.06364616       0.06483381
Ar       5.35470955       1.56943151       4.94681096       0.04397205      -0.03461659      -0.00919180
Ar       2.76344043       2.33410491      15.27389622      -0.01880627       0.03622916       0.01639692
Ar       5.69330929       9.76478355       5.16648152       0.05204301       0.02299949      -0.01727995
Ar       9.15314844      15.36664494       3.41180487       0.03935125       0.02720260       0.16452375
Ar       3.86539326      16.29241622      14.73208676       0.01464792      -0.14107234      -0.03583056
Ar       6.95920948       4.48609998      17.21070080       0.02313168      -0.08070467       0.04705260
Ar      10.69178875       3.26224218      13.69483846       0.04402189       0.04539810       0.01434177
Ar      11.62387635      15.89122417      10.50165832       0.00074752       0.07152888      -0.01262120
Ar       4.46719971      14.11539707       9.98102123       0.00487826      -0.05225328      -0.09805771
Ar       7.87920903       8.25304729      16.98624598       0.01657485      -0.01383324      -0.00225548
Ar      14.96473041       1.76745085       4.55511445      -0.04991975      -0.04075833      -0.04212039
Ar      11.06571679       7.84230688       5.93989704       0.01543415      -0.04416333       0.01938346
Ar      13.85666698       5.96683812       1.21474986      -0.07511889       0.07376786       0.02765034
Ar      16.22730519       3.16259487       0.63341464       0.02398993       0.06154242       0.00060194
Ar       2.06511608       9.40665506      13.21757898      -0.07862451       0.01956102      -0.00940450
Ar       1.28228033       2.37774419       4.46396566       0.09364132      -0.07027367      -0.02463157
Ar       4.45944113       3.91821929      11.73636004       0.01250343      -0.01104023       0.10171612
Ar       6.18840988      17.22747097      10.20070139       0.10714476      -0.04710876       0.01754612
Ar       2.81736313       0.79951690      11.89743537       0.03546837      -0.00608366       0.00354225
Ar       0.55761541       6.08665933       7.05537628      -0.06305759      -0.02791655       0.07808951
Ar      12.64699346       8.46152330       9.75889005      -0.07076045      -0.01835070      -0.01200186
Ar       3.61012999       0.28896800       8.15677064       0.01361294       0.01814614      -0.06233296
Ar       5.72860767      10.01811628      14.33134204       0.02867122      -0.08892436      -0.00815548
Ar      10.56669251       5.69802079      16.66375686       0.01213167      -0.04730437      -0.06983024
Ar       4.14556583       7.21937677      15.55760338      -0.09037404       0.07392016      -0.13469268
Ar       5.33446930       7.57188541      11.81507236      -0.04146615       0.01044962       0.00801035
Ar       3.44628802       3.74872455       1.31350309      -0.08827488       0.02585025      -0.04617021
Ar       3.73505933      12.92834884      13.63698013       0.04999406       0.05290546      -0.03301906
Ar       0.40323225       3.65882982      11.06451518      -0.04028001      -0.01650070      -0.00665133
Ar      13.09106882       0.71819199      14.73776987      -0.01187986       0.13711130       0.00882518
Ar       1.78393610       7.01819363      10.62085709       0.05875894       0.07033767       0.01008236
Ar       7.96164168       1.37524467       1.71257985      -0.06152584      -0.08176762      -0.11467915
Ar       8.58646143       8.37122865      10.47544134      -0.05711617      -0.01028040       0.10788546
Ar       1.81919264       9.55092323       2.16008382       0.01579421       0.05428803       0.00549223
Ar       1.21356124       9.98246082       5.69807389      -0.00536267      -0.03782516       0.01335203
Ar       2.95435803      10.86478080      16.54925318      -0.00055217      -0.05865710       0.03893464
Ar      16.89056368      16.09993588      15.02045191      -0.02404808      -0.15590576       0.07751366
Ar      14.73675981       8.31971716       4.99559986      -0.13312533      -0.04137877       0.07678882
Ar       7.62677541      10.66170629       7.89804177      -0.03229548       0.01123354       0.02744844
Ar      13.90601997       0.02315805       1.61351394      -0.05670028       0.05242608       0.01694298
Ar       5.16790054      15.28516337       3.29729398       0.00479851       0.00166552       0.11064763
Ar       5.33321601       5.38303269       5.45180326       0.05673585       0.07095053       0.04524761
Ar      16.11327259       4.96966773       3.75663976      -0.00794241      -0.00720082       0.07985058
Ar      15.56938343      12.49513698       5.30643582      -0.03042728       0.00312293       0.05663224
Ar       6.89564105      13.28101115       5.78128824      -0.01487523       0.02622474      -0.06823044
Ar       1.62700816      14.63252822       0.10199254      -0.00357249       0.06620238      -0.04500396
Ar      11.18053554      12.17107664      10.33520582      -0.04264715       0.00962653       0.00682855
Ar      12.46196667      12.97008720       2.66359163      -0.04690689       0.02850660       0.07809296
Ar       9.46483842       9.77081270      14.17461290       0.10898417       0.04777410       0.03420717
Ar       8.60190902      16.88298779       6.70771364       0.03066326       0.09797184      -0.06655769
Ar       9.29700084       1.10760055      11.06502185       0.03629773       0.00562667       0.07846763
Ar      12.93239049      10.83448858       6.95981481       0.00120596       0.08115318       0.01037824
Ar      13.77298491      14.84654176       7.37641033       0.05759197       0.03721014       0.00988486
Ar      11.56974830       0.78941401       3.85729385       0.02188646       0.05383121       0.03004209
Ar       8.27724762      14.54635339       9.34554562      -0.05648823      -0.03322110       0.01795924
Ar      10.22046713      12.02248425       0.10690636      -0.11358358      -0.01630936      -0.06731133
Ar      16.44484272       2.25486916      14.11127988      -0.05637301       0.05073456       0.04637891
Ar      15.21271514       9.41154771       1.46389970      -0.05800041      -0.01403320       0.00076106
Ar       2.33730056      16.38017869       5.34684684       0.08601244      -0.06567722      -0.08499482
Ar      15.81130504      12.89934934       1.23261996       0.01133819       0.10277370       0.10269666
Ar      16.83554758       1.69360263       8.04431511      -0.00363659      -0.10625880       0.03137389
Ar       8.50180626      16.90118867      15.50790353      -0.00054388       0.08745915       0.07730586
Ar       0.63764301      15.28945004      11.63520149       0.01936415      -0.07551158      -0.06569531
Ar      11.60265330       6.56265997      13.19654176       0.09273455       0.04711380      -0.07081725
Ar       3.98324256       8.98457437       8.41932249       0.02843601       0.00123698       0.09380636
Ar      16.24237994       8.29920802      12.98028399      -0.00303658      -0.05783914       0.01083496
Ar       3.13778054      12.81806596       6.66020837       0.01876529      -0.00508675      -0.04074999
Ar       8.11946014       6.42912475      13.87886414       0.00930816       0.03553505       0.02462301
Ar       7.02204855      15.03813468      12.87790031      -0.00301879      -0.08375127      -0.06314185
Ar      14.37932401       4.94942108      14.63888009       0.10784517      -0.09119063      -0.07314544
Ar      12.98700139       8.46260632      15.82802006      -0.04348500      -0.06854689       0.06940196
Ar      14.11411819      13.97990780      12.46648453       0.04254183       0.05148110       0.03812362
Ar      15.07063020      17.26344737      11.96116634       0.08272992       0.07893616       0.01143838
Ar       1.15677552      11.84858805      10.21879073       0.08174995      -0.02185057      -0.10477812
Ar      10.41907421      13.62072240       6.78254790       0.00500338      -0.06340584      -0.04611863
Ar      12.89882801      10.55339134      12.88577690      -0.01327379      -0.12638465      -0.04831189
Ar       4.80619296       7.93259273       1.70568626      -0.03414264      -0.02380794      -0.03682899
Ar      11.05319664      16.13706426       0.31451458      -0.00849214       0.04243112      -0.01479908
Ar       1.62152844      13.28956757       3.49511716      -0.04986744       0.01099745      -0.10662262
Ar      12.50535418       1.57350850       7.89260472       0.02166869      -0.01393868      -0.10379165
Ar       6.57359514      13.91152579      17.35273073      -0.02296545       0.02439215       0.03881956
Ar      10.87781405       4.65772986       9.66000391       0.09881741       0.00044827       0.06652385
Ar       6.87443366      11.51124914      11.53873796      -0.01669198      -0.05089454       0.01660844
Ar      10.59213191      13.69410207      13.81444465       0.06779862      -0.03409153       0.07850758
Ar      13.80895977      14.56977074      16.17495850       0.05255306       0.01603219       0.01048494
Ar      17.01914429      12.36583875      14.20179099       0.04938629       0.12528033      -0.00816007
Ar       0.83380745       7.18332122      17.37946815       0.14104887      -0.02751155       0.13601588
