108
Lattice="17.35 0.0 0.0 0.0 17.35 0.0 0.0 0.0 17.35" Properties=species:S:1:pos:R:3:momenta:R:3 pbc="T T T"
Ar      17.19371937      11.80007005       1.57486907       0.00760013      -0.05584037      -0.03958449
Ar       0.83979221       0.15036788      11.40426026       0.06552331      -0.16743767      -0.06538074
Ar       2.57506744      14.72721310       9.68494428       0.07015895      -0.07706486      -0.03140051
Ar      14.04219354       0.46132336       6.34502327       0.00298051       0.07108287      -0.05749926
Ar       2.15644498       2.57791185      14.39812123      -0.08007633      -0.03923431      -0.02674076
Ar      11.92668304       9.34169111      13.06153574       0.01408666       0.00913341       0.02836983
Ar      15.41564356       4.57245385       2.28359561       0.05201984       0.00017693       0.03511413
Ar      12.93823911       1.34974293      10.35433222      -0.11300770       0.04119029       0.03409534
Ar       8.37982384       5.77844464      10.99449166      -0.00920163       0.02358891       0.02705655
Ar      17.02058847       4.29491730       5.61668948      -0.08268290       0.04695545      -0.02720070
Ar       0.54616582      12.42695269       6.11885707      -0.02638374      -0.02487828      -0.16355381
Ar      16.95215280      15.65312850       7.64394455      -0.09662857       0.02973441      -0.13109301
Ar       4.18828441       9.90263896       8.69754299      -0.00021660      -0.00100517      -0.01568371
Ar       1.71528588       9.10433836       4.00432444       0.08170008       0.02385634      -0.08944493
Ar       4.65231355       5.03676009       9.90163252       0.00137512      -0.04472351       0.01588723
Ar       8.25082528       7.42627849       0.77703248       0.01342205       0.01635996      -0.03052292
Ar      13.23633486       1.23151720       3.07951968      -0.01952950      -0.01737737      -0.01068002
Ar      15.86041047      15.72197494       1.04464003       0.01080813       0.03839627       0.06987506
Ar       5.86364051       5.15347406       1.82508956      -0.02046610       0.08532554      -0.05442931
Ar      12.22431607      11.65163550       2.40192015       0.01921246      -0.05281548       0.03835559
Ar       9.82615865       2.25109721       5.21455279       0.02222255      -0.02317802       0.00485329
Ar       8.55268075      10.33495047       8.23667523       0.06298190       0.10878217      -0.05233396
Ar       5.87708398       8.00077400      11.62253312      -0.02568194      -0.05503393       0.02869375
Ar       7.58397991       6.89375523       7.93831950      -0.02214956       0.05485938       0.08090288
Ar       8.78222000       3.63975805      15.97302924      -0.05532022       0.04389510      -0.02706162
Ar       3.76520171       4.76972415      16.61893596      -0.00645198      -0.05259903       0.13087284
Ar      10.21704292      17.14350191       1.53769570      -0.02073877      -0.01769936       0.02458556
Ar      12.27837626       8.00417289       1.51260813       0.01259089      -0.01731253      -0.06147167
Ar      13.00379530      15.06783494       8.24296949       0.02383420      -0.01028670      -0.00818332
Ar      11.03517698      11.75963505      10.27596958      -0.06123782      -0.02113997      -0.01324150
Ar       2.77781620       2.80718139       8.01182240       0.00974291       0.00587343      -0.04203952
Ar      12.66099483      14.67582106       0.51994341       0.00878788       0.00693213       0.04365786
Ar       6.06636740       9.10218488       4.75779969      -0.05148470       0.13744477       0.02096450
Ar      11.78946700       5.94607545      12.45040254      -0.01962291       0.04134859       0.06648478
Ar       2.74853782       8.00633608      14.79342966      -0.02704093      -0.01522974       0.04743461
Ar       9.44040142       7.09616385      14.80157237       0.04683487       0.12247676       0.00973685
Ar       2.15978122       8.46444832      11.14008804       0.07708242       0.04278661      -0.10218590
Ar       9.76318760       2.63075638      12.21632982      -0.03557373      -0.02256134      -0.06649802
Ar      10.32884569       0.02137016       8.22024096       0.00710777       0.01787329       0.02065772
Ar      15.11209847      15.18812231      11.21898230       0.03368696       0.06525696       0.03194475
Ar       3.73093683       0.96739727       0.27833352       0.08006967      -0.04797254       0.02186918
Ar       4.36487973      15.63712872      14.40527427      -0.05462336      -0.03758201       0.10954073
Ar       7.47081244      15.69581362      11.19589964      -0.07190997       0.03230174       0.07159790
Ar       1.60022713       5.21799128       1.99901211      -0.05307861       0.04454232       0.00146582
Ar       0.04652570      11.34760074      10.67807150       0.10812096      -0.02970907       0.02947000
Ar      14.67276160      14.32817475       4.73853239      -0.01733485       0.04650584      -0.07165113
Ar       8.40255766      10.26269070      12.02345089      -0.08965426      -0.03926279      -0.05027850
Ar       5.49599301       4.97453904      13.09926166       0.06643607      -0.01804656       0.11906892
Ar       1.26332403      13.95166782      13.08720993      -0.02072636       0.02632131      -0.07563935
Ar       4.59446943       0.76207641      10.28237374      -0.00259220       0.09026105      -0.13335505
Ar       4.81235637      12.32579686      11.68325463       0.02632617      -0.01349765       0.00696285
Ar      17.30771352       5.20282508      15.10054746      -0.13003767       0.02833397      -0.04798670
Ar       6.14977541       8.90747757      15.27576843      -0.06331595       0.02772170      -0.02079852
Ar      14.53004564       8.24104808      10.99095649      -0.05614319      -0.05105833       0.11568690
Ar       4.81181290      15.71652803       3.41073498      -0.02778806      -0.01379379      -0.02226112
Ar       3.96095838       6.73341730       5.88571299       0.08378577      -0.05618499       0.08404506
Ar       3.04624995      11.76455390      15.47697524       0.05122926       0.00830012      -0.01667490
Ar      14.32242302      16.99232416      14.19116001       0.03519298       0.06106880      -0.03711469
Ar      16.80020811       2.28891540       0.22002306      -0.06714292       0.02025676      -0.00452823
Ar      11.76492998      11.75243490       6.26129926       0.00120593       0.08525570       0.00541499
Ar      14.79008192      11.79932672       8.43280734      -0.01294837      -0.03604349      -0.03972823
Ar      14.83181543       5.19063775       8.88460490       0.06245330      -0.03231847      -0.03720944
Ar      16.39258726       1.52969468       8.86456630      -0.00510170       0.08100656      -0.01589477
Ar      12.79549033       4.19718676       5.20573573       0.02015716       0.01852241      -0.06160233
Ar       1.65014680       6.31179764       8.42219921      -0.04278524      -0.04481371       0.01989451
Ar       9.12945364      14.10623495       7.29927429      -0.08806753       0.00886631       0.09195877
Ar       3.46346322       3.07427388       4.32873149       0.00142926      -0.11033319       0.00435707
Ar       6.98581217       0.25122906       6.48444077      -0.01026006       0.01982150       0.12890287
Ar       5.82341946      13.61539889       0.10305763      -0.01705208      -0.04883528       0.00149749
Ar      13.56609415      10.80599859      16.39326071       0.05091313      -0.07767911      -0.04381777
Ar       6.50564510       1.92223425       3.03997962       0.08978963      -0.01926287       0.02913087
Ar      11.46617270       4.27678693       8.76558685       0.01577006      -0.03438095      -0.03742972
Ar      13.99373144      12.20732345      12.27220900      -0.00122984      -0.02095108       0.00815860
Ar      11.33730130      15.42967699       4.85133999       0.03184743       0.03235048      -0.11757259
Ar       9.81605180       3.73600810       2.05390117       0.05959549       0.01724055      -0.01172760
Ar      14.73759132       3.44494630      13.05301078       0.02922663       0.00796452      -0.07655652
Ar       6.54853183      10.41395798       1.42382051      -0.03137217      -0.02470827      -0.11005168
Ar      11.22736577      12.48857548      14.45750010      -0.06611599      -0.05624398       0.01888737
Ar       2.21258101      14.96525493       0.15737042      -0.00737526       0.03092691      -0.05523260
Ar       8.00837120      13.95178374       3.86936637       0.15371444       0.05805794       0.07319001
Ar      15.51092309      13.43071379      15.69959582       0.01472325       0.01243215       0.07599432
Ar      11.64996859       8.59273364       8.93407475      -0.08137135      -0.03589340       0.03975674
Ar       7.78693048       2.53916067       9.37575217       0.02709345      -0.10875958      -0.07550487
Ar      16.41861877       7.69791670       0.24523342       0.03337247       0.04765200       0.11520068
Ar       9.23607794      10.33380857       3.85928592       0.09667632       0.06461168       0.05223125
Ar       7.48024896      13.02483566      14.34373836       0.08735391      -0.03638186       0.02844766
Ar       0.85541388       4.58435106      11.39270275       0.01026520      -0.01522755       0.13466371
Ar       1.32887914      14.61584426       3.44181450      -0.04320889      -0.05832784      -0.02738021
Ar       9.37371990       5.91573150       4.59093543       0.05260262       0.05257077       0.04322570
Ar       7.03578017       0.03867524      16.76272591      -0.09409285       0.00095185       0.00664233
Ar       6.50339342       3.88220139       6.15302915       0.09674295      -0.04786167      -0.01405489
Ar       9.23513885      13.13116859       0.36087916      -0.01854169       0.03992037      -0.02564181
Ar       3.48889253       8.42518228       0.94805696      -0.02157903      -0.00227318      -0.00746201
Ar       3.06801415      16.87513845       6.92600468      -0.01083412       0.03204048       0.07981176
Ar      13.07239514       1.50751769      16.95062358      -0.02462575       0.00918024       0.03147085
Ar      16.78155597       8.87491080       7.07604561       0.08322408      -0.07497731       0.01232959
Ar       5.76225325      14.31355071       8.22276376       0.12856214      -0.01272555       0.01170952
Ar      10.10467630       9.96550143      16.70860905      -0.03689163       0.08502234      -0.01035493
Ar       3.72430168      11.80522219       2.90890445      -0.00293869      -0.03202737      -0.01983433
Ar       0.70006901       0.74168818       3.98172584      -0.06652451       0.02570461       0.02975350
Ar       0.82261188      17.00971385      14.87937795      -0.01520541      -0.17767580      -0.09624553
Ar      10.49534281      16.82262889      14.78287668      -0.06258357       0.02339631       0.05059982
Ar      12.38410138       5.12135356      16.12212465      -0.14612160       0.00219132      -0.03262060
Ar       6.54164843       0.98673432      13.14082648       0.06874707       0.00653026       0.02391302
Ar      11.33796145      15.42099713      11.64686362       0.01407643       0.02161593       0.05049737
Ar      15.24127757      10.87802663       4.42613782       0.04235054      -0.10095464      -0.01494030
Ar      15.76534076       7.68983942       3.50370861      -0.00511781       0.01720596       0.02523737
Ar      12.18844356       8.20617133       5.13478478      -0.02702514       0.01119916       0.01525237
