108
Lattice="17.35 0.0 0.0 0.0 17.35 0.0 0.0 0.0 17.35" Properties=species:S:1:pos:R:3:momenta:R:3 pbc="T T T"
Ar       1.99289840      14.06666602       5.32713513      -0.01440269       0.01421437      -0.10772651
Ar       9.45858844       9.94038625       4.79859633       0.00354431       0.01906639       0.10030064
Ar       6.13579977      11.24545328       2.61140973       0.06511172      -0.01636028      -0.00207063
Ar      15.87403115       6.52414897       9.90665954       0.03611933      -0.07033820       0.01564866
Ar       7.61978377       3.82692189      13.19145068       0.06861743       0.08280081       0.00812718
Ar       4.11343269       5.38193347       8.18349985       0.03987359      -0.08191763      -0.08673542
Ar      16.66556493       5.10991553      13.75925938      -0.05575129      -0.00002830      -0.02930791
Ar      14.19661869       3.63281492      10.49233293       0.00539706       0.04067878      -0.10731324
Ar       9.20950815       1.87709840       6.47348250      -0.09614933      -0.07485423       0.05958919
Ar      12.96262305       3.06410450       7.33796957       0.05751365       0.07632465       0.02728101
Ar      16.96291386      13.30967119       8.81575303       0.08190595      -0.05870204       0.02435203
Ar      11.64885624       1.58848939       0.75688233       0.02069022      -0.11331246      -0.01992360
Ar      10.75230114       8.38926169       1.54100554      -0.02074113      -0.08071958       0.05584176
Ar       4.72511400       1.93006905       9.33111541       0.05220409       0.02203533       0.01591811
Ar       8.21987235       5.58931695       7.61662866       0.02401249      -0.01279377      -0.03831023
Ar       4.55329720       0.53844844       1.37307426      -0.04838252       0.04450827      -0.06270171
Ar       1.24722800       1.75471309      17.23157001       0.12545835      -0.03557989       0.04031607
Ar       8.58020853       3.65751741       2.92254336       0.07889277      -0.06937050      -0.20745517
Ar       6.64596972       6.56963038      11.18444506       0.00096285       0.01406023      -0.09578589
Ar       1.86898068       6.65945940       5.17890344      -0.05389734       0.07397979       0.06992347
Ar      12.38728758       2.11821765       4.11107620       0.07326950       0.01629341      -0.04402898
Ar       5.17807472      15.72467330       7.50429328       0.04740383      -0.07545000       0.01961710
Ar       4.84798631       2.35554232      15.78233624      -0.08215751       0.02438935      -0.07569528
Ar       5.62706651       7.80823372       6.36959150       0.05758633      -0.10285511       0.01045728
Ar      10.67435447      16.12222192       3.10387853      -0.04982901       0.03874748      -0.07202798
Ar       5.99931548      16.70991727      14.32999768      -0.00152455      -0.00406406      -0.03266914
Ar       5.04056294       5.74744040      15.16988480       0.06339444       0.03823118       0.05341579
Ar      11.41789548       3.03473755      14.90384853      -0.05758253      -0.01250516       0.09559052
Ar      13.31141295      14.55300792       9.02682469       0.10015170       0.05090055       0.02173571
Ar       3.27191352      13.04353503       9.09749941      -0.10700209      -0.02553847       0.03658530
Ar       7.32333608       7.16572648       2.89959912      -0.04835120      -0.01643970       0.00345439
Ar      14.19862598      16.87984412       2.24849610       0.06553034      -0.11068035       0.06360419
Ar      10.20855746       6.48622817       4.76047618      -0.08477053      -0.01655476      -0.00657809
Ar      12.85885574       5.54777752       2.65588379       0.02394537      -0.05226460       0.01269052
Ar      15.77809505       4.65009657      17.08252162      -0.07443874       0.03166502      -0.05906716
Ar       0.54995430       8.41254068      15.58503650      -0.02760990      -0.03041005      -0.01260421
Ar       2.09902464       3.01366251       6.32312871       0.01783681       0.00120272       0.00207076
Ar       3.92325683       4.47468371      11.94334758      -0.00332351      -0.03694911      -0.01289703
Ar       4.62268431      16.21875110      11.00586433       0.00893884       0.02054435       0.04223896
Ar       1.84087194       1.37904227      13.04532924      -0.14938882       0.07244990       0.09013843
Ar      15.33799302       5.94569337       6.18809354       0.00443028      -0.01919272      -0.03914833
Ar      11.81064188       6.55645823       8.22421510       0.00747136       0.04414463       0.05159651
Ar       1.17307994      16.48163381       8.65424957       0.00364787      -0.04775912       0.06210288
Ar       7.43030317       9.27154604      17.10833676       0.08889898      -0.10419067       0.03376136
Ar       8.99322932       5.81250923      16.96784797       0.00779955      -0.10036395      -0.03905762
Ar       1.99543789       5.29073659      16.58821786       0.01397911      -0.02892602      -0.03350994
Ar       4.34316867       9.30686467      14.48061386       0.07650293      -0.02283330      -0.03464185
Ar       1.92705722       3.88768204       2.98768583      -0.05071081       0.06303781       0.00235375
Ar       5.33536783      13.10921452      14.42779009      -0.01181275      -0.03860371       0.00755122
Ar       0.53922949       3.70344529      10.29578284      -0.08099567      -0.10227250       0.02559649
Ar      12.33214931       0.96757502      11.88497313       0.01237183       0.04468904      -0.05987936
Ar       1.99951622       7.73012473      11.85970597       0.12042042       0.00472866       0.08757895
Ar       4.95028459       4.61040806       1.23742814       0.01883949      -0.01995633       0.00953485
Ar       8.43627821      10.36273878      11.70104173       0.10419043       0.08150325       0.00099298
Ar       2.45768488      11.02605027       3.07327721      -0.08770408       0.05849608       0.01217981
Ar       0.95370677       9.01542975       8.15014025      -0.00606790       0.04446777      -0.01102789
Ar       2.70748372      11.72452079      16.66166035      -0.01539660       0.00622387      -0.02056361
Ar       2.62141399      16.11361478      15.42314008       0.00421203       0.03770348      -0.04677450
Ar      14.20603745       8.75925403       4.17639446      -0.04784165       0.03931545       0.02890217
Ar       8.66280934       8.99270568       8.47920223       0.07555599      -0.11449196       0.02531907
Ar      12.93741677      16.97712737      14.93666139      -0.10526188      -0.02110881       0.06393487
Ar       5.92147343      14.36988285       4.18502203       0.02677992      -0.07045889      -0.01359749
Ar       5.84049630       3.86557009       5.56247095       0.09132786       0.05299131       0.01247738
Ar      15.80633200       3.63954294       2.98494747      -0.03561083       0.07985249      -0.01793947
Ar      16.66549708      11.47061270       5.52306845      -0.02550292      -0.11826916       0.10418684
Ar       7.64518464      11.92996917       7.23635186      -0.03939148      -0.03845881       0.04071677
Ar       5.56447461      14.58781862       0.57383688       0.05220346       0.01806236       0.07868549
Ar      10.48824771      12.46599153       9.93649997      -0.05985766      -0.00484879      -0.02436847
Ar      12.15310885      12.32157153       2.78833810       0.04890572      -0.04550565      -0.02832640
Ar      11.77174951      11.24148060      15.18984718      -0.05247850      -0.01857872       0.06147744
Ar       8.60051009      15.79652059       6.89392749      -0.03511170       0.06013040      -0.01531538
Ar       8.22654553       2.69780123      10.11247545      -0.07610848      -0.05290456      -0.04206948
Ar      14.08946082       9.62386486       7.61727639       0.04865344      -0.08250960      -0.06752925
Ar      14.90983849      14.85700565       5.95566276      -0.00775327       0.00101548       0.03654506
Ar       6.48767670       0.50038672       4.37139096       0.00020670       0.10125477      -0.05475503
Ar       8.19390554      16.51170106      10.69823228       0.01543905       0.05588611      -0.01984737
Ar       9.54414928      12.07146570       0.55682558      -0.02481576       0.02061642      -0.06772023
Ar      15.62174746       1.89817273      14.76268152      -0.00020659      -0.01213974       0.04164756
Ar      16.79440609      11.23033459       1.23648947      -0.03642411       0.03234138      -0.00151976
Ar       1.33570388       0.19724071       3.32684042       0.03533423       0.05593576      -0.01260973
Ar      16.56899460      15.70342549      16.08594810       0.03799562       0.00351304      -0.00087012
Ar      15.84613773       1.48577592       5.57204579       0.02274268       0.08732697      -0.02126345
Ar       9.38089983       0.15452339      13.93406025      -0.06284573       0.01866506       0.05678378
Ar       1.51191228      14.55535605      12.36893223      -0.00436856      -0.02886578       0.03152384
Ar      12.10050389       9.12720688      10.70748412      -0.08543397       0.03456907      -0.04808754
Ar       4.88559094       9.94886972      10.18821315      -0.05532910       0.05974001       0.04161833
Ar      14.71160481       8.59795705      13.34168566      -0.00762916       0.00649225       0.04162977
Ar       4.39069102      11.58113419       6.01588036      -0.06222372      -0.00849598      -0.04361006
Ar      10.51402728       8.05467064      14.03170077       0.00433829       0.02714234      -0.08474626
Ar       8.90741889      13.56264963      14.08002373       0.04364627       0.01409207       0.06644353
Ar      13.20445253       5.91020905      14.32624339       0.00259774      -0.02459873      -0.02364854
Ar      14.47833282       8.63268823       0.35666550      -0.03523381      -0.06164840      -0.05963243
Ar      15.63096032      15.80673201      12.38085633      -0.08928581       0.05412771      -0.09378267
Ar      14.99424360       0.53695088       9.39535937       0.04764807       0.16357878       0.04210381
Ar       1.03604752      11.20205281      11.66587440      -0.01740794       0.05964093       0.02772228
Ar      11.29149659      13.41776123       5.96788148       0.06530407       0.01294402       0.00352231
Ar      14.37790833      11.86717568      12.18137276       0.01556894       0.04411832      -0.02749975
Ar       3.76407957       8.25166577       0.47030448      -0.05156316      -0.02091386      -0.01374392
Ar      10.29316526      15.79332111      16.96642972       0.00187165       0.04864735       0.02426646
Ar       1.75561226      14.20896051       1.62505575       0.09720055       0.03784577      -0.06067066
Ar      11.21953718       0.02808986       8.67015335      -0.05013432       0.02118423       0.04584586
Ar       7.99455904       2.04049527      16.85627975       0.11787940       0.00534250       0.02313644
Ar      11.18489223       4.92128084      11.82950764      -0.05224529       0.05617851       0.04630993
Ar       6.43080187      13.39280663      11.04133138      -0.01993677       0.11022894       0.03050850
Ar      12.17342824      14.79966383      12.59875171       0.09047939       0.00957075      -0.02360494
Ar      14.16184341      13.49127927      17.17313662      -0.00179105      -0.04941469      -0.00459205
Ar      16.65605394      12.23418036      14.91965006      -0.11135811      -0.04840016      -0.02540587
Ar      17.20307036       7.05549561       1.67998126      -0.04166248      -0.05603883       0.11680427
