108
Lattice="17.35 0.0 0.0 0.0 17.35 0.0 0.0 0.0 17.35" Properties=species:S:1:pos:R:3:momenta:R:3 pbc="T T T"
Ar      17.21432412      12.20471547       1.67064076      -0.00351587      -0.04569340       0.00122337
Ar       0.61125578       1.09809950      12.16178627       0.08552488      -0.04666607      -0.05659619
Ar       2.25452816      14.88731080      10.55483811       0.06397895       0.06314949      -0.10543397
Ar      13.96763818       0.38077263       6.59951986       0.03608782      -0.06650018      -0.02998636
Ar       3.14264681       2.53375192      13.67239473      -0.13276436       0.09046547       0.08831304
Ar      11.97922963       9.13116609      13.08305765      -0.05451106       0.07168373      -0.02625305
Ar      14.67709199       4.31412343       2.01143507       0.09487817       0.02636162       0.01471790
Ar      13.45324155       0.96304604      10.35293960      -0.00123730       0.04690658      -0.03383614
Ar       8.64003003       5.98138863      11.19713094       0.00369637      -0.08630641      -0.00753815
Ar       0.17026299       4.01186490       5.83778934       0.00622378       0.00389862      -0.02885146
Ar       0.96741866      12.26221535       7.28073369      -0.08253538       0.07678560      -0.12760753
Ar      16.89015503      15.52037635       7.96674347       0.04851950      -0.03668816       0.06374640
Ar       4.17608705       9.93111925       8.52529415       0.03168866      -0.01228638       0.07160376
Ar       1.22932543       9.35839559       4.55038477       0.03945444      -0.11540227      -0.04222580
Ar       4.84854755       5.57186930       9.12688431      -0.01734815      -0.09837336       0.08546205
Ar       8.36465675       7.09251865       1.23025727      -0.04570684       0.02459606      -0.04161249
Ar      13.37255103       1.28265051       3.13800090      -0.00767480       0.01935641      -0.01329791
Ar      16.18392682      15.79520760       0.84089176      -0.03581814      -0.02612351      -0.01791779
Ar       5.72819833       5.07539997       2.45313273       0.06584386      -0.02196978      -0.10308459
Ar      12.07075912      11.97324465       2.57963066      -0.00692693      -0.06269433      -0.06374367
Ar       9.64765511       2.22145781       5.36576380       0.01241195      -0.01192448      -0.01212698
Ar       8.04332141       9.98011385       8.59281756       0.04926652      -0.02483433      -0.06544306
Ar       5.74162727       8.68683603      11.42387582       0.01448356      -0.06876917      -0.01643213
Ar       7.68337193       6.69873923       7.53966441      -0.03591412       0.00212276      -0.07338587
Ar       8.99059535       3.01561823      15.81189794       0.00282529       0.10670027       0.01919013
Ar       4.28622854       5.55063236      16.42398664      -0.13930499      -0.05406100      -0.12421749
Ar      10.29947829      17.28887595       1.53402439      -0.03306094      -0.00150681      -0.03400624
Ar      12.31444530       7.91547743       1.70619256      -0.01398854       0.02954298       0.02018084
Ar      12.64479614      14.79635182       8.23979955       0.09027906      -0.04040186       0.07669310
Ar      11.39349325      12.10784832      10.00826731       0.01054963       0.02857011       0.05622520
Ar       2.47149764       2.66302802       8.14660795      -0.00094669       0.03664764      -0.01066905
Ar      12.52150703      14.76191585      17.19293847      -0.02832231      -0.04189458       0.10062310
Ar       6.41916207       8.28506932       4.62778582      -0.02396574       0.06452380       0.04602560
Ar      12.30207020       5.52467881      11.90714558      -0.11634710       0.01942401       0.03860361
Ar       2.91612651       8.20770324      14.77259054      -0.01536347      -0.08800186      -0.02319551
Ar       9.10673736       6.31352312      14.45587488       0.01738092       0.06201229       0.02337619
Ar       1.42240375       8.17468854      11.47531531       0.11710545       0.03130305       0.04090679
Ar      10.28648507       2.55719777      12.79104089      -0.09951659       0.04199730      -0.00298121
Ar      10.12414233       0.17558598       8.23448705       0.03017151      -0.02375769      -0.03384867
Ar      15.36768555      15.31135505      10.93752078      -0.04193674      -0.02004158      -0.04485918
Ar       3.20056758       1.39785968       0.24288940       0.01638875      -0.05272357      -0.01041907
Ar       4.50473091      15.69332601      13.72891325       0.02723852      -0.00422592       0.06714661
Ar       7.93711877      15.31403859      10.56364323      -0.00994161       0.05081655       0.08707468
Ar       1.61776575       5.24300453       1.71511125       0.04374572      -0.05085990       0.08265259
Ar       0.03504318      11.60185134      10.79728978      -0.09818274      -0.06290368      -0.01970016
Ar      14.99678016      14.72733899       5.31422113      -0.06733848      -0.05352347      -0.03847655
Ar       8.79814268      10.64290009      12.56432297       0.00632986      -0.05998676      -0.06420799
Ar       5.42784073       4.89692661      13.02177846      -0.10263053      -0.06549399       0.06620693
Ar       1.30072070      13.92453660      13.50413379      -0.03080675      -0.00812406      -0.05876293
Ar       4.31189907       0.15388059      10.61756441      -0.01772862      -0.02130152      -0.00532188
Ar       4.55146669      12.39725808      11.61717045       0.04291560       0.00467454       0.01624250
Ar       0.69331959       5.00645495      15.29767348      -0.08256094       0.05720342       0.00579777
Ar       6.66204405       8.87764966      15.47394577      -0.04808295      -0.01282507      -0.02524323
Ar      15.33877899       8.78932443      10.39011378      -0.09729322      -0.06644174       0.00002348
Ar       4.65487876      15.92676968       3.31819042       0.09459199       0.04607628       0.08803999
Ar       3.37435446       6.58818809       5.19115863       0.04387890       0.00066583       0.08790302
Ar       2.93123331      11.55813794      15.81564756      -0.02096032       0.04152778      -0.07206689
Ar      14.26008848      16.48212856      14.20679456       0.00314746       0.01713170       0.04281286
Ar      17.24361440       2.33383327       0.53887701       0.01269098      -0.08548803      -0.11546806
Ar      11.71729731      11.35202147       6.24668553       0.03933214      -0.00534159      -0.00423880
Ar      14.50128704      11.96572049       8.29520641      -0.02684045       0.04548376       0.02450918
Ar      14.77034357       5.28666113       9.04237297      -0.01173615       0.00826560      -0.00193840
Ar      16.59571905       1.83521829       8.59466490      -0.06268086      -0.10410961       0.04669178
Ar      12.90915641       4.28818286       5.67996983      -0.03464123      -0.02237393      -0.05994460
Ar       1.33998583       6.86334888       8.14250382       0.09601469      -0.09195649       0.03168735
Ar       9.03002493      13.53541030       7.47060857       0.07347629       0.09397701      -0.07582202
Ar       3.18289807       3.31422198       4.41392989       0.03197909       0.13220713       0.03168429
Ar       6.93171080      17.16697507       5.83330785       0.00386279       0.09606835       0.00366474
Ar       5.66493105      14.19598147       0.21753552      -0.01332157      -0.07718945      -0.01067301
Ar      13.59479520      10.84167449      16.76842860      -0.05817595       0.00774176      -0.01915782
Ar       6.34340302       1.39054832       2.69229244      -0.04541404       0.01644098       0.10024273
Ar      10.83570289       4.35199749       8.86148512       0.11063663       0.02847560       0.04812121
Ar      14.24576956      11.79568473      12.43124892      -0.02970875       0.07030287      -0.02104205
Ar      11.45719183      15.74131477       4.79850168      -0.01471726      -0.07300429       0.07614395
Ar       9.63278483       3.39959072       1.89531052       0.00046619       0.02996037      -0.02193128
Ar      14.59343891       3.24028130      13.59843462      -0.00498949       0.06044657      -0.06382494
Ar       6.54427301      10.69123142       1.34984711       0.02046612      -0.00177772       0.10025744
Ar      11.16775183      13.33192682      14.32652098       0.04220184      -0.08337924       0.02461958
Ar       2.28340948      14.68117817       0.19639746       0.02991513       0.02612498      -0.00620314
Ar       7.21699431      13.29521542       3.42039817       0.05133687       0.08571382      -0.00313887
Ar      15.72884153      13.59208295      14.99307637      -0.01668719       0.02202406       0.01090734
Ar      12.02204307       8.58033482       8.57463485      -0.02017164       0.01980017      -0.00975773
Ar       7.33897105       2.80840594       9.53080328       0.06952242       0.02960006       0.00164595
Ar      16.02665836       7.73785379      16.79761078       0.08119187      -0.05663904       0.05783589
Ar       9.67707361       9.90449382       3.77316364      -0.10816054       0.08169438      -0.00866777
Ar       7.05342950      13.32210174      14.12634554       0.01010028      -0.03784387       0.00211618
Ar       0.66749590       4.37467616      10.82238135       0.03469183       0.03735756       0.02701273
Ar       1.29005245      14.63444366       4.14114999       0.07012763       0.03644772      -0.11460182
Ar       8.99721801       5.98175064       4.40388837      -0.01406973       0.00643742       0.07193951
Ar       7.57499255      17.27738378      16.66689185      -0.01251719       0.04531603       0.01952889
Ar       5.97673733       3.85080215       6.25549099       0.00569988       0.08308344      -0.00390626
Ar       9.35944032      13.05636503       0.49181019       0.02248352      -0.00188380       0.02179080
Ar       3.69684520       8.39651764       1.08826139      -0.02815267      -0.00347730      -0.04335747
Ar       3.13617137      16.70653296       6.24682483       0.02625259      -0.03020911       0.01769189
Ar      13.15003358       1.57274150      16.77191640      -0.00159294      -0.01467544       0.01113067
Ar      16.12221942       9.15238009       7.23264841       0.07601488       0.01693192      -0.00885757
Ar       5.09404895      14.29080785       8.01509533       0.04729253       0.02728661       0.02441761
Ar      10.09748961       9.52736816      16.46268941       0.03585008       0.03241884       0.06792700
Ar       3.57933130      12.19685290       3.08173727       0.01833741      -0.03827539      -0.01298905
Ar       0.93753745       1.01279966       3.70512960       0.01802019      -0.04710765       0.05752561
Ar       0.55081608      16.93084081      15.42694557       0.02108184       0.11943131       0.03838307
Ar      10.68792108      16.76299751      14.73250338       0.01985099      -0.02272143      -0.02145782
Ar      13.40203983       5.25398044      16.37093423      -0.10192040      -0.05168244      -0.01025126
Ar       6.67098239       1.59203230      13.61979670      -0.06095424      -0.11290053      -0.06756292
Ar      11.36362280      15.38195342      11.36411317      -0.02814974      -0.06306951      -0.04183517
Ar      14.82856067      10.97048671       4.51715700       0.03173371       0.02066671       0.00687277
Ar      15.54401434       7.53370855       3.69248933       0.04225228       0.05909628      -0.01129626
Ar      12.47323707       7.95812356       5.26042072      -0.03465555       0.07446754      -0.02386639
