108
Lattice="17.35 0.0 0.0 0.0 17.35 0.0 0.0 0.0 17.35" Properties=species:S:1:pos:R:3:momenta:R:3 pbc="T T T"
Ar       0.54024801      13.26805528       8.28410291      -0.01348318       0.07867188       0.09386880
Ar       8.87164141      10.44153290       3.64279246      -0.03057595       0.05388866      -0.02210904
Ar       5.60521532      10.99803167       1.44801717      -0.03719052      -0.02423212      -0.06764715
Ar      16.53785462       8.59429290       9.26992190       0.00728782       0.04814578      -0.00910866
Ar       6.37510021       2.35611252      14.68659638      -0.13371356      -0.07692956       0.04351923
Ar       4.24935940       4.65544046       8.80927644       0.01200459      -0.09032396      -0.00664240
Ar       0.51368905       5.88932130      13.89413872       0.00275480       0.01665343      -0.11093620
Ar      14.98058082       4.81359425       9.58124674       0.05098645       0.01393643      -0.00611275
Ar      11.45063721       3.32981413       6.05282880      -0.09470649       0.01692224       0.00503107
Ar      12.98391939       2.53002888      11.12380078      -0.00231777      -0.03135548       0.03022008
Ar      14.67469700      12.87608241       9.61235047       0.01211642      -0.07474514       0.00610953
Ar      12.46061066       1.71023989      16.86595437       0.04237915      -0.10940596       0.05995546
Ar      12.05499218       8.08016517       3.91082457      -0.06489460       0.04583666      -0.04764745
Ar       8.13497077       3.56042975       7.34359567      -0.07124187      -0.07552822       0.06683841
Ar       6.26759015       7.38751350       7.22311214       0.04813459       0.00975472       0.02610793
Ar       2.52360254       0.24849290       2.17428722      -0.02029635      -0.04144979      -0.10825797
Ar      17.00749504      15.91107195       3.42077476       0.07006662      -0.07967277      -0.09591258
Ar       9.22821449       5.65374225       2.89814657       0.00392699       0.05961008       0.03403973
Ar       8.15256475       4.85207263      11.44842527       0.00097833       0.06305931      -0.02206490
Ar       3.14123230       7.20045653       4.25953323      -0.01081959       0.03498942       0.02887350
Ar      13.97267785       6.26468434       6.20810535       0.00747207       0.01954146      -0.01619484
Ar       4.41860242       1.81748708       5.88794481      -0.04177851      -0.11282700       0.00258083
Ar       1.93108424       3.26564381      16.28202332       0.04193226       0.05434216      -0.08839261
Ar       4.96095640      10.09421099       5.02195623       0.01590866      -0.02914814      -0.12421659
Ar       8.59826562      14.04688851       2.69227999      -0.07659884       0.02632970      -0.01914334
Ar       5.57214117      17.18174116      16.92152203      -0.03041788      -0.05040007      -0.06946129
Ar       8.82552302       2.44478337       0.50276316      -0.12348609       0.09120906       0.05672842
Ar      10.23529870       3.21209912      13.65989610       0.01406928       0.08342767       0.04592264
Ar      11.46129268      15.39130343      10.08103098       0.05181262      -0.03663348       0.00508050
Ar       3.91340755      16.35197478      10.79876755      -0.00078750      -0.05118709      -0.03534296
Ar       8.79632937       8.76024243       0.46251746       0.10084782      -0.03338039      -0.03440913
Ar      13.92861784       2.47861197       2.99020980       0.02241591      -0.02520199       0.08846549
Ar       9.92867371       7.43409940       6.56681069       0.00585331      -0.02666117       0.00914604
Ar      13.10422403       5.63609692       1.39379344       0.06162745      -0.02154426      -0.00412731
Ar      16.26889640       1.66823965       0.19777232       0.10182529       0.01932500      -0.01883328
Ar       2.80481134       8.56323561      13.39170116       0.05241919      -0.01476372      -0.06085575
Ar       2.29582203       3.90110666       3.15016932       0.01367156      -0.02175077       0.09902583
Ar       3.99069512       4.59054803      13.03259821       0.03135892      -0.10963772      -0.09587940
Ar       5.54108352       1.87965414      10.54314863      -0.01231695      -0.07230628      -0.01860767
Ar       3.02223359       0.76457013      13.59315439      -0.03185097       0.03453640      -0.02607112
Ar       0.82057070       6.20755432       6.78169282       0.03276809       0.01909814      -0.08776575
Ar      12.92411067       9.03518900       9.46149445       0.01841607      -0.05027041       0.01049708
Ar       2.38982374       1.53715873       8.26559679       0.01240586      -0.05556378      -0.04465684
Ar       5.67435927      10.16977613      14.71483018      -0.04811816       0.08282122       0.12631229
Ar      10.23705891       5.53190197      16.27446368       0.01126653       0.10071441      -0.02509280
Ar       3.31655428       6.82932690      16.55019020       0.04882251      -0.00017725       0.03090273
Ar       5.87175975       7.66124705      10.94475986       0.00994268      -0.04025616      -0.00090128
Ar       5.60372574       3.94883927       0.49927813      -0.04807742       0.13694795       0.08617303
Ar       2.95589354      13.15836262      13.84368704      -0.06548804      -0.03413458       0.02922460
Ar       1.03486709       3.52329689      10.89493477       0.05172272      -0.01896866       0.04414562
Ar      12.16321491       0.35845082      13.61501321       0.03549590       0.03985575       0.11387414
Ar       1.99909128       6.88451496      10.56782488       0.03332140      -0.02261119      -0.02464585
Ar       9.06355435       1.81170763       3.76512805       0.00200238       0.09726790       0.00113898
Ar       8.95621675       8.69641829      10.11780629       0.01832904      -0.00316878      -0.02499923
Ar       0.69505733      10.11109946       2.88211912      -0.04830313       0.00466078       0.06516368
Ar       1.33197387      10.23922713       6.57521860       0.06397889      -0.04753530      -0.06182970
Ar       2.19503281      10.67261017      16.24118404      -0.01587962      -0.03926930       0.01134320
Ar       1.29589667      16.43567497      16.22303344       0.02348282      -0.05277847       0.00733627
Ar      15.81065161       8.73433917       4.96229420       0.02830110      -0.01446533       0.02134807
Ar       8.07314028      10.61291005       7.60368301       0.10186401       0.05815615      -0.01159899
Ar      14.18437855      15.58940839      16.97486605      -0.06155233       0.01426476       0.05164817
Ar       5.51856741      16.08986708       3.19577571      -0.07251171       0.04003063      -0.14043179
Ar       5.90070653       4.70524720       4.39520639      -0.08192173       0.07867227       0.04400001
Ar      16.21369990       5.25445168       3.38221066       0.03106782      -0.08280423       0.04686907
Ar      16.58556984      12.68386982       5.01665240      -0.03925514       0.09702884      -0.05140591
Ar       6.77607305      13.58821416       6.50682602      -0.03864522       0.00221837       0.00991267
Ar       3.18804035      14.00392421       0.22006987      -0.04933377      -0.10345504      -0.02802747
Ar      11.03568599      12.02892827       9.51617855      -0.03384921      -0.05760249       0.01660754
Ar      12.49760297      13.53696885       3.16915707       0.08022366      -0.02136947      -0.03025446
Ar       9.27465993       9.22514534      13.95511298       0.00445110       0.03311422       0.04174126
Ar       7.45657987      17.26997889       6.33322338      -0.00559473      -0.06463055      -0.02290808
Ar       9.04254514       1.13572649       9.94623335      -0.04714017       0.04690788       0.00259886
Ar      12.39427465      10.65461453       6.23747220       0.06946437       0.04329726       0.06301250
Ar      14.14880048      14.73782448       6.42461868       0.00891331       0.05993561       0.08043852
Ar      11.82828922      16.67223356       4.35704820      -0.03258219      -0.08637543       0.04597880
Ar       7.23090144      15.15894675       9.50545513       0.03863563       0.03210140      -0.02100170
Ar      10.57325039      13.02868729      16.17367363      -0.02945306      -0.06700357      -0.00132571
Ar      16.02519357       1.52846769      13.54981695      -0.00337442       0.07853557      -0.03230958
Ar      14.13485580      10.34983042       2.20329197       0.15731148      -0.12625795      -0.05611813
Ar       2.57582834      15.56871928       5.87045996      -0.01434088       0.09649038      -0.00657650
Ar      16.70990632      12.86978517       1.19817827      -0.10711459       0.04178299       0.00441497
Ar      15.56105663       2.87557547       6.08570821       0.03748221       0.05989756      -0.00504876
Ar       8.88253827      16.28266131      14.59909140       0.03788590      -0.01702097       0.07335952
Ar       0.02287735      15.96449203      11.68410881       0.09209725      -0.02011281       0.00958184
Ar      11.59032274       6.63799948      12.67812971      -0.11639310      -0.04986730       0.02546578
Ar       3.93792286       9.54333481       8.86025874       0.03549552      -0.04978404       0.00095656
Ar      14.74056163       7.89744851      12.40437853       0.12194095      -0.01022332       0.04165228
Ar       4.03783413      13.17321356       8.48792332       0.04855146      -0.00831298       0.01543464
Ar       6.68730796       6.33932472      15.03202722       0.04085708       0.03836657      -0.07426992
Ar       6.21458213      14.23119134      13.09563806       0.01635388       0.00342862       0.00137814
Ar      13.65041375       4.33490518      14.71100300       0.01417176       0.07642895       0.01423593
Ar      12.00919450       9.06458930      16.33842443      -0.05231414       0.04090670      -0.00297818
Ar      13.72123280      14.28143901      13.58166437       0.05799526       0.02070438       0.00471675
Ar      15.78834577       1.22734669      10.04591004      -0.06236835       0.04044825       0.04151378
Ar       1.96233772      11.67810379      10.83158331      -0.08746536      -0.01714877       0.04975205
Ar      10.27319482      13.70754656       6.62679278      -0.03486770      -0.06740854       0.00915378
Ar      12.56290774      10.68994131      12.64294944       0.02895684      -0.00002610      -0.00263656
Ar       5.97180577       7.49055998       1.81471382      -0.07414450       0.14592896      -0.02796090
Ar      10.37350683      16.31561875       0.81376421       0.04723382      -0.10639020       0.02457824
Ar       2.76591172      12.72978849       4.04701870       0.07020504      -0.00801217       0.00556012
Ar      13.02314569       0.40639156       7.88843892       0.07144262      -0.03722888      -0.05086668
Ar       6.83621277      13.41085906      16.37267540      -0.05262937       0.01411813      -0.01440980
Ar      11.33627996       4.87578838       9.12111126      -0.09062059       0.02077500      -0.03775376
Ar       6.45215211      11.24775319      11.36060016      -0.09028026      -0.03037424      -0.09933294
Ar       9.52714946      13.01055697      12.65546457       0.01432780       0.04265868       0.01593252
Ar      14.21856388      11.85828897      16.14700086      -0.04353153       0.07154068      -0.02873757
Ar      17.15849023      10.88063558      13.68024121      -0.02154787       0.02974346       0.08882547
Ar      16.38312269       8.63703330      17.23181126      -0.02385996       0.04066486       0.04552627
