108
Lattice="17.35 0.0 0.0 0.0 17.35 0.0 0.0 0.0 17.35" Properties=species:S:1:pos:R:3:momenta:R:3 pbc="T T T"
Ar       0.09662653      11.53811906       5.16006913      -0.02089423      -0.08524172      -0.07459145
Ar       7.32278132      10.42429559       7.16199451      -0.10278125      -0.07033795       0.06042052
Ar       5.68598737      11.18048605       2.86131825       0.03871371       0.05727076      -0.01547507
Ar       0.80185004       5.52643152       9.85121364      -0.00099662       0.00439813      -0.05946968
Ar       9.39637122       5.31166881      14.61056044       0.03855899       0.02885196       0.01869140
Ar       6.51730615       8.61893208      11.04707758      -0.05321172       0.01844159      -0.00244987
Ar      16.40360396       4.69315982      13.28741325      -0.02049148       0.01561933       0.09320286
Ar      14.17990550       4.96973339       9.97436569       0.03406230      -0.00579538      -0.14251835
Ar       8.34246931       4.51511096       5.02601317       0.07492011       0.06503647       0.01586953
Ar      11.59166788       3.66591162       6.12860618      -0.08257493       0.03436797      -0.01731638
Ar       0.76804134      13.38154406       8.01033752       0.01358289       0.02193451      -0.05813799
Ar      14.60168894       0.16693141      16.59237537       0.00873365      -0.02303288       0.06577273
Ar       9.05880495       7.96623127      -0.00026679       0.00709244       0.10741357      -0.07483355
Ar       5.22711808       2.12861717       5.98715791       0.03926411      -0.00890769      -0.09452793
Ar       6.03798768       7.15250269       8.01411581       0.06706594      -0.11198058       0.07037413
Ar       4.75497461       1.89390723       0.28352953      -0.06917064      -0.03290926      -0.00607364
Ar       0.76210626       2.53210941       2.82875636       0.05073259       0.05516151       0.04800835
Ar      11.50879566       2.84952209       1.63495124      -0.00092108       0.04348596      -0.05994475
Ar       7.45572804       4.81543610      11.55957619      -0.11369429       0.05139504      -0.03421049
Ar       0.56671970       7.68382855       6.68760000      -0.00112547      -0.02436523      -0.01660197
Ar      12.57680972      16.15071400       5.95956975      -0.01036592       0.06533710       0.10715545
Ar       6.87273924      15.83548071       8.13825701      -0.06734915       0.01709103      -0.05754933
Ar       5.27922153       1.81828735      12.92519341      -0.00182051       0.01816789       0.03302030
Ar       3.88292422       8.80090872       5.37262618      -0.09004138       0.00137831       0.04503780
Ar      11.26352854      16.46039230       1.96059498       0.08520023      -0.02972687       0.02064152
Ar       6.14029528      17.00444911      15.32528815      -0.01477155      -0.04774517      -0.09059569
Ar       5.79728763       5.26459566      16.02246499       0.05690113       0.00915114      -0.05556174
Ar      11.69474574       0.08004606      14.59958597      -0.04080209       0.04434205       0.02521564
Ar      13.67523750      11.91324730       7.57048515       0.04979571       0.01284765      -0.08728938
Ar       3.83366624      15.91260653      11.28346277       0.11568203      -0.00144005      -0.08347725
Ar       5.28168310       8.00278356       0.94569646      -0.04215371       0.04248244      -0.06726652
Ar      15.54502096      16.01107789       2.59213122      -0.01042084       0.13894955      -0.03864915
Ar       7.73807122       8.10676430       3.49762242       0.05212901       0.01344026      -0.08435045
Ar      10.99831729       6.47526067       3.07542382      -0.04630775       0.12033369       0.12970311
Ar      15.24270034       3.73849707       0.58741135       0.00057292      -0.03619353       0.04574834
Ar      15.34590215       7.29800808      15.76936055       0.01056871       0.00214494       0.03221306
Ar       2.43874585       4.54895813       5.56869424       0.00646370      -0.02035890       0.08211904
Ar       8.97196937       1.89626312      12.85232054      -0.00575890       0.03806908       0.04648746
Ar       6.21517700       1.71769211       9.67227830      -0.01292922       0.04758142      -0.01745193
Ar       1.58841097       1.29404484      11.62624904      -0.06567774      -0.00074363      -0.01416350
Ar      14.83512386       5.36736580       6.25867346       0.00579227       0.04739422      -0.00044279
Ar      10.70850333       9.81417626       5.18387183       0.03757910      -0.04608479      -0.06665546
Ar       3.35213995       0.18964613       8.46266625      -0.02357596      -0.09255544       0.01540551
Ar       6.63487194      11.13933088      16.40243123       0.00177468      -0.04638056       0.02314529
Ar      12.08031875       6.76768994      16.66719189       0.04431617      -0.05735000       0.08812215
Ar       1.48652482       3.27626544      16.43029350       0.00729945      -0.07044958       0.02525149
Ar       5.06324166       8.12047112      14.50323859       0.01680108      -0.10404229      -0.10680594
Ar       1.38875399       6.72222136       2.67962604       0.00123033       0.08251026       0.08213096
Ar       4.70569091      14.07831682      14.55442180       0.06105469       0.04863380      -0.02895951
Ar       3.50736907       3.71946502       9.78088617      -0.07007212       0.00333176       0.01913075
Ar      14.28854451       1.54675611      11.91400504      -0.00005328      -0.01176375       0.05976699
Ar       2.80564996       4.42766260      13.04512317       0.04801423      -0.08656790      -0.06292132
Ar       8.40843498       4.82176916       1.34937674      -0.08366724       0.02508044      -0.00653403
Ar       9.78672375       9.18987661      10.13944044       0.13419494       0.07513006       0.00074866
Ar       2.61103028      11.37722048       0.78258439       0.07677696       0.00024055       0.15729709
Ar       2.95159321       9.64115687       8.79890587      -0.04027865       0.05699498      -0.01650306
Ar       0.80032104      10.11992014      15.35216193      -0.03826129      -0.01381477       0.02151624
Ar       2.19300628      16.63895412      15.50918173      -0.10715982      -0.06786810       0.02598983
Ar      14.15635205       8.76692433       5.32697170      -0.03210842      -0.02061929      -0.03042895
Ar      10.36747991       7.12307648       6.88368351       0.03208260       0.04251261       0.04719878
Ar      14.59022795      15.36147566      13.02635731      -0.06538231       0.00384682       0.01280402
Ar       4.24388790       0.12467551       3.14929154      -0.03108368      -0.02038792      -0.04439934
Ar       4.90841890       4.54406546       2.57556345      -0.05979351      -0.09095046      -0.00376643
Ar      14.82055810       1.53870196       4.41445609       0.01430936      -0.01005862      -0.02806228
Ar      16.76900584      10.25799819       8.88865432       0.05988100       0.00174834       0.05673220
Ar       5.35980442      13.04343719       8.84796816      -0.03445394      -0.00272561       0.02070920
Ar       4.96082202      14.48082819       1.04199661      -0.00411145      -0.03750977       0.01293719
Ar      10.40459326      13.36872322       9.36024187      -0.00956639       0.07819237       0.00134261
Ar      10.14241302      13.11068356       5.41786605       0.04341775      -0.01865085      -0.02450121
Ar      10.50935852      11.43792262      15.60473275       0.03427729      -0.05979991      -0.09229591
Ar       6.49133196      15.25951864       4.37446540      -0.04513363      -0.00266893       0.07400686
Ar       9.91819554       2.49097388       9.19713203       0.00808180      -0.01720877       0.01755652
Ar      13.08033308       8.67740119       8.87529120       0.02060772      -0.00466214      -0.01080902
Ar      13.65640125      15.33830405       9.47294577      -0.04000040      -0.06000348      -0.01371290
Ar       7.58203638       1.47214757       2.27599779       0.07930643      -0.01602469      -0.03908208
Ar       7.61597787      15.60921816      12.18010033      -0.06358820       0.07648874      -0.01652281
Ar       9.08039117      11.41372400       1.80678963       0.15729841       0.01476762       0.04131888
Ar      16.79716455       1.38704134      14.40772612       0.02035211      -0.03407612       0.01581767
Ar      15.95023360      11.07330743       1.75687057      -0.00963089       0.03072570      -0.03989732
Ar       1.08927516      17.28615027       5.48225406      -0.14013185      -0.04135703       0.07739994
Ar      16.59811936      14.58883022      16.01497276      -0.00279089       0.02729351       0.02619194
Ar      17.06245383       2.29019475       8.52147738      -0.00563970       0.06146349      -0.04605682
Ar      10.89334453      14.05806320      13.22591682       0.03042516      -0.04401124      -0.07440617
Ar       1.00643724      14.94416208      12.90223735       0.02936772      -0.11432153      -0.04888072
Ar      12.05913775       8.16082098      13.48035208       0.06264637      -0.04817552       0.04923207
Ar       3.39786788      12.11414276      11.96405557      -0.07051461       0.01302785       0.02379385
Ar      15.28066122       8.08217397      11.99802620       0.04251717      -0.08522854       0.07125226
Ar       3.67190223      13.13553729       5.86578522      -0.03240220       0.05891282       0.02381908
Ar       8.76077311       9.01374360      14.19693688       0.07318217       0.03215430       0.04600676
Ar       8.35408473      14.79400448      17.33108448       0.00360924       0.03160287       0.03333117
Ar      12.77518877       4.16762781      13.99608252      -0.02766805      -0.00450621       0.01639430
Ar      12.47792299       9.59935662       1.63244143      -0.00077986      -0.10830047       0.03249814
Ar      16.78134944      16.58641897      10.20274653       0.01651287       0.03834210       0.00336961
Ar      13.49913184       1.56757064       8.37622303      -0.00041863       0.00726808       0.06148168
Ar       1.48899543       8.77521524      11.85627451       0.04161624      -0.00987430       0.04181648
Ar       9.37762139       0.23414063       5.66728923      -0.00594060       0.01439863       0.04622581
Ar      16.05564074      13.03842948      10.64207732       0.02031150      -0.06104339       0.05844330
Ar       2.04082393       6.72718232      15.68056118      -0.07971507       0.07963433      -0.08318459
Ar      12.81838823      14.47397171      16.26817688      -0.07260401       0.08940487       0.01893909
Ar       1.36488032      15.09963956       1.33348336       0.02418289       0.00106082      -0.04088368
Ar      11.01442273      16.62499956      10.74012920      -0.04342797      -0.04947288      -0.01492252
Ar       9.03949403       1.67469209      16.35463535       0.08394078       0.01495132       0.02838769
Ar      10.91341420       5.71281363      10.99411658      -0.01037541       0.02042196      -0.06513021
Ar       8.25477666      11.77442933      12.15902286       0.03119176      -0.00221315      -0.01389719
Ar      12.60098129      11.58225214      11.36699246       0.07096519      -0.04441955       0.01907555
Ar      12.38230197      13.32375309       2.48015753      -0.03806971      -0.07219847      -0.05978308
Ar      14.44423303      10.60174657      15.60318984       0.01503423       0.01231128      -0.06424278
Ar      14.74234504       7.17151234       1.99472130      -0.03733162       0.01158507      -0.04007467
