108
Lattice="17.35 0.0 0.0 0.0 17.35 0.0 0.0 0.0 17.35" Properties=species:S:1:pos:R:3:momenta:R:3 pbc="T T T"
Ar      16.80009917      10.32595659       3.64633154       0.02002884      -0.06890512       0.13796545
Ar       3.46310553       2.03439853       8.22472658      -0.11783948       0.00731292       0.01998814
Ar       6.55901358      17.25296002       7.35584862      -0.04779148       0.01022862       0.06356733
Ar      14.43475965       0.34009462       4.13515698      -0.06655497       0.01516235       0.00210090
Ar       7.45133881       2.11609832      13.48288643       0.02014728       0.13966072      -0.02766862
Ar      10.60109038       9.67045686      12.39479456       0.03761513      -0.00726226      -0.13536736
Ar      13.98634218       4.07788973       0.90822720       0.00610478       0.03963112       0.03804842
Ar      12.79696470       1.45546628       9.08052582      -0.08169576      -0.01589384       0.09048371
Ar       8.97802882       6.42989571       8.34712505       0.11558815       0.00364554      -0.08999910
Ar      16.38376247       5.43838907       4.71599148      -0.01350706      -0.03231127       0.04563586
Ar       1.91881260      11.36786385       7.82017216      -0.03793742       0.11549246       0.08682496
Ar      15.28013510      16.45007687       7.56864777      -0.08922616       0.01377872      -0.07547824
Ar       5.34297582       9.19678223       7.20112753       0.02675902       0.00599317       0.01507693
Ar      16.51161360       9.35817079       8.40799237       0.02278038       0.06864984      -0.13900132
Ar       3.75977297       6.00811150       9.34585795      -0.00420353      -0.06260037      -0.10288887
Ar       7.45711110       7.40060702       1.11778016       0.01812859      -0.03282163      -0.00014301
Ar      11.49447397       1.32435745       2.51982427      -0.00150802      -0.02741441      -0.05473931
Ar      13.34169724      10.88281239       3.78200459       0.02335916       0.11225800       0.03565881
Ar       6.13452145       4.67585172       6.68324413      -0.02683212      -0.03462290      -0.06176035
Ar      13.37249618      13.59495219       1.56180116       0.09385488       0.06161239      -0.01035396
Ar      11.19786114      17.21247961       6.49103160      -0.00207498       0.09965559       0.00461982
Ar       7.57773931       8.20002197      11.04638205       0.06231008       0.02670253      -0.02266919
Ar      17.21775197      11.42124227      14.04385155      -0.00134648       0.04434990      -0.06930350
Ar       8.33269568       8.21251872       4.69793556       0.00212071       0.14008993       0.09493568
Ar       8.60428898       4.69781911      16.05639127       0.01583264      -0.04759074      -0.05874432
Ar       3.50742036       3.83871714      14.51373339       0.06753241       0.00062682       0.00788612
Ar       8.63661008       1.03679509      16.68165322      -0.00199320      -0.06658494       0.02870084
Ar       9.67263983      10.28059263       1.04838585       0.03917885       0.04729373      -0.04394812
Ar      12.63734057      15.10318398       9.16359476       0.02596862      -0.08743217       0.02155983
Ar       9.69970708      13.01039674      10.73101048      -0.00344285      -0.09988899       0.03375405
Ar       5.14859460       6.48819161      12.74511163      -0.05245917      -0.07904574      -0.03204036
Ar      14.75538111      13.91048219      15.10255076      -0.02936079       0.04570882       0.00093160
Ar       8.27372292      10.39658419       8.45565559      -0.01666691      -0.01539714       0.04051396
Ar      12.68948472       5.39295031      10.75314422       0.00768588      -0.01233246       0.06527989
Ar      17.28050781       7.43807922       2.04809756      -0.01481441       0.05458035      -0.03433313
Ar       7.97100343       8.11150283      14.98099986       0.05888130      -0.06839404      -0.00313576
Ar       1.59695604       6.72117753      13.46603600       0.02762260      -0.05584575       0.00489169
Ar      10.90224456       2.58991452      12.35685342      -0.01045844       0.02157225      -0.05926576
Ar       9.39634893      16.96975579       9.63300304      -0.01361927       0.01608775      -0.05436697
Ar       3.13772913      14.83177460       9.67155821      -0.05601381      -0.02864737       0.02879911
Ar       2.19351993       4.69671841       1.26798950      -0.03524835      -0.03053341       0.07713809
Ar       5.15819979      17.10240109       1.30612723       0.01794189      -0.08233836      -0.08385859
Ar       6.44218860      14.81863874      10.77264243      -0.01819318      -0.01340723       0.10904211
Ar       2.38007661       8.59524575       4.90468615       0.04888765      -0.05050877       0.02945240
Ar       1.99541977       9.83385121      11.48404533      -0.07991102       0.02642743       0.09933977
Ar      15.43842518      17.25986512       0.68918819      -0.03771265       0.04017865       0.07878256
Ar       3.99488565       9.50791054      14.64979498       0.00374783      -0.08472006      -0.01185605
Ar       4.43467221       6.82506049      16.63469413      -0.03480257       0.00558891       0.02904593
Ar       3.86140482      13.37407312      13.91752973       0.00123662      -0.15571998       0.06295454
Ar       5.37813993       0.79770892      10.94125755      -0.03123479       0.05793038      -0.03340385
Ar       5.46866741      11.30308751      10.42631616       0.05297229      -0.04896086       0.00677936
Ar       2.77646765       0.44503302      13.41935437      -0.01000335       0.03218660      -0.02968455
Ar       5.40292456       5.91227546       3.79590472       0.02735138       0.07531713      -0.07595216
Ar      12.78038109       8.52398491       9.89853903       0.12279744       0.04449615      -0.03519875
Ar       1.94505079      15.71165891       2.39785423      -0.11068994      -0.03826022      -0.00565813
Ar       2.38849117       4.67008710       6.09208604      -0.03623280       0.05068455       0.04228240
Ar       1.55178648       9.51323100      17.07653722       0.07204792      -0.03563922      -0.08941866
Ar       0.61368375      14.57112554      12.17808611      -0.00942202      -0.03620805      -0.11449545
Ar      17.16280221       3.61209665      14.81523329      -0.02756306       0.06717982      -0.06153220
Ar      12.04409018      10.92155236       7.27833264      -0.01440387       0.05185698       0.09991555
Ar      15.58491759      11.99609306      10.50948750      -0.02922163       0.04310990       0.00815274
Ar       0.26560029       1.40977131       6.98265932       0.08059833       0.00142911      -0.01077525
Ar       0.23080295       2.19394896       3.42028727       0.03617532       0.01119667      -0.00859832
Ar      13.21536047       3.93610696       4.74609359       0.01509059       0.03020539       0.04193057
Ar       0.58849592       4.52549977      10.45807200       0.03808847      -0.04620427      -0.05684257
Ar       9.13816145      14.45149838       6.86342697      -0.01417925      -0.02550276      -0.05620639
Ar       3.66214773       0.92757122       4.52533461       0.05715596      -0.00786458      -0.01061760
Ar       8.01657973       2.08890239       4.81160240      -0.00325772      -0.02079752       0.15263390
Ar       3.83258580      13.43271303       0.72593589      -0.05501937       0.01293115       0.03850252
Ar      14.68364422       9.56290223       0.20644752       0.03253591      -0.01522142       0.01663244
Ar       5.65090833       3.98462680       0.84898349       0.00246879       0.07364876      -0.07896969
Ar      10.72558585       3.50934850       7.13486320       0.08419755      -0.00836705       0.02907024
Ar      14.04588599      10.07441312      13.19522657       0.08229216      -0.04293343       0.05128025
Ar      12.55539641      14.09760215       5.09149961      -0.03036603      -0.02962724       0.01285177
Ar       9.36417496       4.64993559       2.32982102      -0.01267187      -0.06412410      -0.05991891
Ar      13.49371814      17.14148188      12.53367473       0.00599586      -0.08804808       0.06851742
Ar       8.09145619      13.41540222       1.92584927       0.10595949       0.01688757      -0.00245114
Ar       7.45905600      11.35015814      13.23374943      -0.04095053       0.01024699       0.00304459
Ar       1.76273982      15.62270311      15.97269304      -0.03744721       0.05793177       0.01245366
Ar       9.46026406      16.13252389       3.48822844      -0.07168124      -0.05396927      -0.03973359
Ar      16.98769752      12.42906623       0.17318138      -0.05175190      -0.04459514       0.00236951
Ar      15.30287390       5.04697845       7.98300490      -0.07748206       0.01333291       0.03103298
Ar       9.99477757       6.10884796      12.97215098      -0.02629373       0.02568542       0.02152157
Ar      16.03603477       7.57409650      11.34451586      -0.10000263      -0.01241671       0.00195487
Ar       9.90522188      11.66707338       4.24352176       0.06584275      -0.06179987      -0.00976616
Ar       8.47494824      13.73493264      15.77642371      -0.01891773       0.06174008       0.02416845
Ar      14.86163157       3.08492928      12.19497896      -0.01496021       0.01110438      -0.02274339
Ar      16.59081896      14.41969848       4.25372074       0.11732850       0.00196603      -0.02310610
Ar       5.35327669      10.45737955       3.36491425      -0.01934212       0.11167708      -0.03364079
Ar       5.95360520      16.65642197      15.04037049       0.02903243      -0.00377394       0.07143344
Ar       7.59656751       3.56009507       9.95020175      -0.14457201       0.06166749       0.05828131
Ar      12.02090621      11.06820727      15.56057973       0.02421113       0.03076255      -0.08230129
Ar       5.65683342      14.79471440       4.31084644       0.04501996      -0.02396851       0.03853753
Ar       1.84951824      15.25233737       6.28957909       0.00700753       0.09284468       0.06007589
Ar      13.09000392       2.76464997      15.10922565       0.01659843       0.07316201       0.02979730
Ar      11.80197349       6.92407316       6.20583769      -0.06494978      -0.00458151      -0.06714191
Ar       5.36852201      13.19526937       7.26464602      -0.06528874      -0.04127302       0.01896432
Ar       6.32364601      10.50512310      17.30785408      -0.00385589      -0.04604317      -0.04327666
Ar       2.80734080      12.54502910       4.20762655      -0.04733650      -0.13264343       0.06090540
Ar       2.21170921       1.68253951      17.04412872      -0.06487917      -0.01850019      -0.01933462
Ar       0.60209315       0.64843262      10.58928722       0.03009807       0.03229155      -0.02265332
Ar      12.43330644      16.68033154      16.35617521       0.07827945      -0.03119422      -0.01724008
Ar      14.26131842       6.08302666      14.02144488       0.03033019      -0.08821771      -0.03466540
Ar       9.59242608      15.85801772      13.38978852       0.01438179      -0.00077846      -0.08412704
Ar      12.61106790      13.72818588      12.48782643       0.02332179       0.04025994       0.02158415
Ar      15.65087989      12.47655589       6.77944944      -0.03274232      -0.00941944      -0.00327372
Ar      13.78292520       7.32119057       3.25925004       0.05111748      -0.00816966       0.01527496
Ar      11.40695963       7.40516117      17.31437169       0.05032329      -0.00669952       0.01072203
