108
Lattice="17.35 0.0 0.0 0.0 17.35 0.0 0.0 0.0 17.35" Properties=species:S:1:pos:R:3:momenta:R:3 pbc="T T T"
Ar       4.17800138       9.78114358       5.65498358      -0.04387379      -0.03691847       0.04098475
Ar       6.90250301       5.65220825       7.45774526      -0.04957290      -0.01724626      -0.03907171
Ar       6.91625671      12.58378543       3.91154418      -0.06475035       0.04581040      -0.04979965
Ar       0.22860151       6.03604267       9.88393205      -0.00699338      -0.06121586      -0.03495328
Ar       8.08443576       6.55702980      15.80636632       0.00807206       0.06413193       0.01476157
Ar       6.07416917       9.17947241      10.34106228      -0.01318046       0.03109127       0.00325037
Ar      16.38190002       4.79183522      14.12239516       0.00722257      -0.07174929       0.02466161
Ar      13.71653143       5.49672920       9.88018406       0.03376053      -0.01139795       0.07689625
Ar       9.87036961       4.92616992       5.30462125      -0.02538321      -0.01196891       0.01338471
Ar      12.07561700       2.55291617       6.72014404       0.03404859      -0.00674388      -0.06853745
Ar       1.53567950      13.10935351       8.01906269       0.02350949       0.07537448       0.02679306
Ar      13.84912351      16.90866019      13.29674154      -0.02190447      -0.03155084       0.00120320
Ar       7.35572804       9.48356526       0.64443875       0.10045691       0.07665915      -0.07807119
Ar       4.73732761       2.25184483       7.15812495       0.05428136       0.04923185       0.08191187
Ar       4.21658416       5.81586448       9.90546191       0.03439484       0.07533504       0.11244790
Ar       5.41666042       2.85447758       0.04176819       0.06423139       0.05289890       0.03300816
Ar       1.49653854       4.01560248       2.89331429       0.01188832      -0.10767672       0.10172239
Ar      12.37701145       3.25600578       2.71895421       0.05437591      -0.03518398      -0.03163105
Ar       7.15087706       5.90653377      12.57804594      -0.10558412       0.08036074      -0.03639523
Ar       0.94647968       7.68248186       3.72811546       0.06642359       0.07576879      -0.03066447
Ar      13.81567989      15.40921978       6.98851658       0.00106403      -0.03193284       0.05480595
Ar       6.44564723      15.25197431       7.32408947      -0.00528643       0.11708276       0.05208967
Ar       2.38332468      17.18622452      13.17294398      -0.08840010      -0.04335790       0.04081875
Ar       5.04970104       8.20471587       2.93050281      -0.05727459       0.03216717       0.03832386
Ar      12.49107599      16.76914254       3.60207888       0.08139892      -0.00127473       0.03486087
Ar       6.40967086      16.58218492      14.30735271       0.01347374      -0.09377874      -0.14095020
Ar       7.76504294       2.60436834      14.37772505       0.10606953       0.11503448       0.02556297
Ar       9.52433087      15.27102917      13.77559873       0.07821397      -0.06114921       0.06163663
Ar       0.28634189      10.90679577       5.46640635       0.03526978       0.01352293      -0.04596336
Ar       4.77906268      15.44338742      10.67526367      -0.09036726       0.05536283      -0.00122009
Ar       4.53993626       6.21621752      16.30578253      -0.03421061      -0.01420072      -0.01173702
Ar      13.51569360       0.45694498       0.18995812      -0.03915237      -0.00370475      -0.10537402
Ar       8.39116605       9.26484814       4.02221572      -0.08867672      -0.02846122       0.07598871
Ar      12.63353264       7.00101243       6.43743649      -0.00319552      -0.02138661      -0.01631822
Ar      15.33498701       3.61716553       0.28191965       0.16569996       0.01639703      -0.04825899
Ar      14.41290326       6.82066586      16.95877147      -0.00255694      -0.04035500       0.01833404
Ar       2.84668021       5.69366518       6.35361251       0.07442355      -0.10173310       0.04425093
Ar       9.22515921       1.16886034      11.58982531      -0.04676539       0.00101616       0.05116581
Ar       6.48665596       3.04253555      10.35231869      -0.04140722      -0.12025757       0.02350282
Ar      16.22178479       2.04148406      11.56673754       0.00174186      -0.06188035       0.03666661
Ar      15.65469908       4.66642511       6.48637535      -0.02582382       0.11393160       0.05433344
Ar      11.29557055      11.93866339       5.16487298       0.04840273      -0.00143754      -0.05935865
Ar       3.01245603      16.64619669       8.02726462       0.06992105      -0.09464109       0.00596918
Ar       7.97897259      12.77322372      16.22319493      -0.04157609       0.02874611      -0.00700696
Ar      11.77094112       7.52986505       2.98490143       0.04864677      -0.00905421       0.01548920
Ar       1.65329113       2.90004828      17.10826503      -0.03725667      -0.01251376      -0.09549451
Ar       5.09846124       9.81032046      14.36433275       0.02178663      -0.02721860       0.05891930
Ar       0.61357023       6.81834072      16.54796213       0.06735544       0.01156021       0.01955593
Ar       3.58032267      13.40313117      14.29194378       0.06258652       0.04732161       0.00220479
Ar       2.11052800       2.71915076       9.51433388       0.04253062      -0.03379836       0.07507781
Ar      12.67394826       3.09352712      12.63361666      -0.00575240       0.01610387      -0.04919608
Ar       2.44538249       3.74059411      12.80636522      -0.03560729      -0.06653567       0.02797754
Ar       9.22395422       5.00095177       1.14453539      -0.03871876       0.04181830      -0.05002854
Ar       8.10781089      11.56788723       6.91976532      -0.02097906       0.06078963      -0.07023474
Ar       3.12566247      10.17667220       0.52370201      -0.04364302      -0.00470385       0.04318294
Ar       1.97498640       8.84611993       8.45061504       0.04460782      -0.00086889      -0.01133416
Ar       0.57191155      13.28123241      16.69755534      -0.02280994       0.01506787      -0.10394374
Ar       3.60078583      16.41960908      17.04026403      -0.01941970       0.00592997      -0.10597594
Ar      14.29032189      10.08519117       4.94806972      -0.02623290      -0.01600082       0.08914609
Ar       9.18560853       8.39305519       8.15970690       0.04783847      -0.04102677      -0.05331444
Ar      13.72930428      13.67743029      11.15999869      -0.08410715      -0.05519537      -0.09888349
Ar       2.95393414       0.81832987       2.74849537      -0.03869240       0.07102054       0.04167988
Ar       6.26090475       3.77396232       3.96520228      -0.05747503      -0.01260870      -0.00872802
Ar      15.61667050       1.37799642       3.69479427      -0.01799467       0.02688080      -0.10252346
Ar      15.55545235       8.29813575       8.21781876      -0.03124220       0.07157955      -0.04470132
Ar       4.95942179      12.41712526       8.51938740       0.00826963      -0.01022945       0.02450093
Ar       4.47762159      13.58146691       1.25372083      -0.03262378      -0.14717124       0.00380373
Ar      11.05775224      13.71821125       7.99849782       0.02858378       0.01257351       0.06734431
Ar       9.28049345      15.19277683       3.95842206       0.06579377      -0.05875368      -0.01536235
Ar      11.51718446      12.27919474      15.19299313       0.01302403       0.02470640       0.02180302
Ar       6.08554598      16.66538751       4.17640444      -0.01003683      -0.07623947      -0.01721949
Ar       9.70885992       4.42503741       9.02166011       0.03808251       0.00113021       0.08046565
Ar      12.10315772      10.58115873       8.03762287       0.06300250       0.07528246      -0.05528985
Ar      15.45752669      12.14265302       8.16143883      -0.05699780      -0.01976764       0.03207899
Ar       9.03294479       1.26303032       4.73897202       0.09358612      -0.02302915      -0.00606967
Ar       8.86942971      15.08591662      10.19954804       0.07528234      -0.01406259      -0.02625813
Ar      10.11076796      11.38269586       1.33019212       0.02122480      -0.07280802      -0.15348233
Ar      17.31351229      16.97415220      17.00760245      -0.08402416       0.05232680      -0.02380986
Ar      16.94822543      10.76582434       1.53341338      -0.00159725      -0.07837485       0.06689522
Ar       0.34642302      16.06422562       6.16790873      -0.05269652      -0.06243686      -0.01347648
Ar      14.34512335      14.07744191      16.39400715       0.04642442       0.01878118       0.03044216
Ar       1.14742457       2.00137782       5.69385130      -0.08689321       0.08849812      -0.05491242
Ar       8.92555048      11.46052718      10.46925673      -0.00393433      -0.04222079       0.00550751
Ar      16.97665624      14.56264488      13.69961471      -0.03081290      -0.02153264       0.06032522
Ar      11.00084166       8.78083399      16.48575852      -0.11047209      -0.00727830       0.04892930
Ar       2.87987510      11.61188068      11.17679284      -0.04332852       0.04173661      -0.08857028
Ar      15.39787790       7.49695522      12.39622297      -0.04688654       0.05725241       0.04110087
Ar       3.55480923      13.28515635       4.98865348       0.04448907      -0.08080312      -0.00779550
Ar       8.72558639       9.18018856      13.57323131       0.04008512      -0.03540110      -0.05910956
Ar       7.28635855      15.81574162       0.89277018      -0.03321061       0.06268901      -0.08222323
Ar      11.41252078       5.00162623      15.80984347      -0.02230321       0.07152814       0.06507826
Ar      13.50419020      10.72337182       1.14946408      -0.11358938       0.00463296       0.00450092
Ar      16.56526581      15.76918670       9.44156722      -0.09809790       0.02711147      -0.01697680
Ar      15.13974093       1.53242192       7.51826779       0.03074758      -0.05618164      -0.01450592
Ar       2.53565525       7.02712832      13.09258385      -0.02731655      -0.01101110       0.03476628
Ar       8.46853429       1.08223569       8.11211614       0.05316520       0.10277643      -0.01670188
Ar      16.55228437      11.33111627      11.62470530       0.05134722      -0.01356463      -0.05198721
Ar       1.57808852      10.71985753      14.42840214      -0.05803514       0.02487250       0.00521090
Ar      10.88509983      15.01864867       0.83068645       0.04613335      -0.04590552       0.03685633
Ar       0.90068318      15.02407740       2.84906512       0.05799734      -0.00885966       0.01040011
Ar      12.64103438      17.29838072       9.71060626       0.01285718      -0.08070226       0.08343441
Ar      10.07598738       1.86009323      16.91219101      -0.03112395       0.08681153       0.01440614
Ar      10.45663720       6.82969916      11.36788198       0.09163246       0.00643632      -0.07635725
Ar       6.89693862      13.15190526      12.44199415       0.03971322       0.13334720       0.04174675
Ar      12.66372103       9.79123549      12.78021781      -0.02654952      -0.01400210       0.05457215
Ar      14.29801553      13.73983846       3.19531000      -0.01108860      -0.00104825      -0.00602547
Ar      15.43880857      10.44834965      15.60258974      -0.01441689      -0.00760017       0.01776432
Ar      15.04538687       6.07554302       3.22663325      -0.05323596      -0.00077653       0.01130060
