108
Lattice="17.35 0.0 0.0 0.0 17.35 0.0 0.0 0.0 17.35" Properties=species:S:1:pos:R:3:momenta:R:3 pbc="T T T"
Ar       5.21595100       4.08429537       5.10947733      -0.09153159       0.08821651      -0.00158707
Ar       7.33825788       7.70702300       4.16982718       0.01146792      -0.04846153      -0.06722383
Ar      10.76769440       8.59342844       4.07663254       0.01573099      -0.01310583       0.04939976
Ar      14.32642688       7.32948880      10.30491213      -0.04807107      -0.00403466      -0.07364471
Ar       2.64433498       3.06697425       7.14320563       0.02006890       0.09035808       0.08246408
Ar       3.52089737       0.76835146       3.16473330       0.01952656      -0.05041666      -0.06644821
Ar      15.38169527       3.98825947       0.58682059       0.04728161       0.02268910       0.01866691
Ar      14.03135638       3.55201945       8.61566585      -0.00484207      -0.01976134       0.02305791
Ar      10.48821438       4.91849546       5.21123844      -0.04395770       0.04862090      -0.03045285
Ar      16.91433761      15.20857457      15.20652679      -0.06345524      -0.12396258      -0.02339621
Ar      11.70797146       9.87838213       8.14350659      -0.00452998       0.09994553      -0.04698673
Ar      17.18931720       3.48490542       5.37919694      -0.00063741       0.04042608      -0.03256464
Ar       1.10468937       2.38164817       1.21297958      -0.01253184       0.00762373      -0.06531986
Ar       5.38921464       6.58491281      17.16162442      -0.04322669       0.00290401      -0.03825246
Ar       7.64603952       3.84873649       2.25594954      -0.03564976       0.03408990      -0.03413150
Ar      16.76920681      17.25842095       3.54643282       0.04232364       0.04645231      -0.02658357
Ar       5.53778334       0.79832911       6.15705166      -0.00796707       0.00509407       0.02051231
Ar      11.88866569       2.90499323       1.85221520       0.00725903      -0.10141817       0.03365977
Ar       4.79515254       5.59695040      10.12531446      -0.06974791      -0.03562957      -0.02763883
Ar       2.26250715       9.37979338       0.45110302       0.05654177      -0.05244886       0.03784395
Ar      13.95555228       4.98599064       3.90600667      -0.04752295       0.00969596      -0.01611467
Ar      14.69615356       0.07393105       9.55380070       0.05764585      -0.05655556      -0.01190290
Ar       4.62841523       3.11160556       0.56075639       0.08530368       0.04285736       0.06625852
Ar       3.30858303       6.65166161       2.60964511       0.00158377      -0.01827365      -0.05131647
Ar      12.76377812      15.85363554       2.41861689      -0.06100657      -0.01339167      -0.00140011
Ar       9.42703577       3.28728833      16.46900428      -0.03535821      -0.00628413       0.00312086
Ar       6.69475862       4.67685227      14.52328153      -0.03003811       0.00642351      -0.04401229
Ar      10.18498999       3.52617055      12.01568760       0.00415613       0.07955559      -0.03362707
Ar      13.54507567      14.97051287      13.47596824      -0.11406599      -0.04113976      -0.03693403
Ar       0.66927455       0.50455562       8.90345025      -0.06258497      -0.02884981       0.07502967
Ar       8.90554043       6.82796788       0.43267415      -0.06414084       0.07552259       0.04085073
Ar      10.48399674       2.08346867       8.03090532       0.04609613       0.06116304       0.02702304
Ar       8.20144952       8.76755732       8.23981121       0.04515317      -0.10244910       0.04256676
Ar      10.06543545       6.42818961      14.00105600      -0.02206863       0.03731355      -0.06956572
Ar       2.41345546      16.18550290       0.30667140       0.04201116      -0.06075949      -0.03426156
Ar       0.98563388       7.04176239       9.26571450      -0.01389523       0.11380955      -0.05602310
Ar       1.10895988       5.68730680      16.59695058       0.01490383       0.04147120       0.04382719
Ar       2.52921054       2.09838957      15.19307593      -0.14077764      -0.15098598      -0.02217023
Ar       7.63279735       4.87147073       7.64951420       0.03097814       0.08748362       0.01004560
Ar       4.19161273       2.82181354      11.81031757      -0.10136363       0.01724063      -0.01797409
Ar      16.96697293       7.04565745       5.64848683      -0.00776043      -0.01900830       0.06174208
Ar      11.00923260       5.69148706       9.30559665       0.00722589      -0.05233811       0.04543335
Ar      16.86304146       3.02135607      11.19451656      -0.02661403      -0.02703777       0.00645039
Ar       9.12401959      12.15843432      15.55770358       0.07748887      -0.05557007      -0.05682340
Ar       7.66393300       8.88382498      14.61575592       0.05471566       0.04809130       0.14355062
Ar      17.11454433       6.11308170      13.00161204       0.01481058       0.01025484       0.00934183
Ar       3.28892555       9.21033122      14.25420359       0.06414544      -0.10945185      -0.03016212
Ar       3.51306189       5.77484616      13.72124468      -0.01470050      -0.01149162      -0.00528066
Ar      16.47586759       8.60098046      16.09170699      -0.08219566       0.03991984      -0.03830575
Ar       1.30974130      17.02531128      12.50166329       0.07244412       0.09037066      -0.00466150
Ar      12.85932031       3.77155724      15.03629467      -0.00609034      -0.12446522      -0.08422694
Ar      13.47914596       1.58986541      12.68334511       0.05565322      -0.11612908       0.04068053
Ar      13.86503001       1.80277938       5.29860427      -0.05731966      -0.00938985       0.00472291
Ar       4.14315852      13.39085576      10.49375484       0.02533922      -0.00923818      -0.05684720
Ar       1.18241369      10.48058098       5.72325108       0.06174862       0.07862557       0.01014199
Ar      15.85563539      10.02888388       8.55940766       0.05385990       0.03124993       0.02952347
Ar       5.56070978      10.62886936      17.26871647      -0.01289784      -0.01301960      -0.00966846
Ar       6.04011919      13.23960025       3.49501853       0.06196668       0.00665463      -0.01596636
Ar      13.94668252       8.92043912       5.46309598      -0.04343682      -0.07104272       0.02144626
Ar       8.75872101      11.27795610       4.78644261       0.00807275      -0.02340183       0.06921533
Ar      15.79643361      14.65655560       1.52019591      -0.03536923       0.03650363       0.04420632
Ar       9.74541239      14.43926497       2.98545370       0.00966370      -0.15811124       0.00063990
Ar      10.26580288       0.34526748       0.81819449       0.09181036       0.16722866      -0.04563998
Ar      16.79975929       6.85651093       2.19774229      -0.01086509      -0.08332025       0.00689147
Ar       4.34324747      10.02069111       3.26815444      -0.02503524      -0.00075760       0.00574119
Ar      11.64062353      16.49395652       6.15998223       0.01918287      -0.00910692       0.05406317
Ar       7.07707900      15.09668843      17.09685575      -0.10135408       0.01938884       0.00691470
Ar       8.37719791      12.26454970       8.67027821       0.00659568      -0.04637316       0.00698808
Ar      15.23770641      12.17717689       4.99878709      -0.05464182      -0.02758301      -0.06569136
Ar       9.03531128      10.45039754       1.54173207       0.04823284       0.00147037       0.03686301
Ar       9.75555213       1.70902720       4.39756808      -0.05318641       0.02807294      -0.07447453
Ar       7.16746912       1.98026157       9.47147027       0.00870877      -0.07957917      -0.03836454
Ar      12.02564400      12.75580831       6.14979575       0.05780878       0.01726801      -0.00925064
Ar      16.66754273      14.35497828      11.60811099       0.04392188      -0.01719181      -0.10604178
Ar       1.00942407      13.38752106       8.13278981      -0.04766122       0.04548074       0.01909190
Ar       4.88378193      13.02672048       7.01095672       0.02506145       0.14598123       0.05976417
Ar      12.98513000      11.06494463       1.73276672       0.04450025      -0.03809360      -0.01041468
Ar      13.90641780       0.04227379      15.93551852       0.02778768       0.05724551      -0.07973632
Ar      12.85654433       7.27980023       1.22764228      -0.04360452       0.00047212       0.06245403
Ar       8.10694985      15.93169957       6.92237024      -0.02539118       0.10099831      -0.09855453
Ar       2.29198918      16.28167315       6.18920855       0.06505198      -0.03980880      -0.10211485
Ar      15.21305514      15.49165937       6.05352074      -0.06367835      -0.01179541      -0.06859712
Ar       7.22490493       1.29155156      12.99501598      -0.00654797       0.04339601      -0.01533694
Ar       2.14893247      13.41707933       3.33028909       0.00176378      -0.03288479       0.05021390
Ar       5.37129129       9.80382061      10.62129589       0.00021059       0.07185399       0.00340135
Ar       4.42718890       8.13255849       7.04260164      -0.03789927      -0.02447149       0.00743748
Ar      10.63115027       9.04934553      11.23175664       0.01515041       0.01967582       0.04457044
Ar       2.22128581      10.31558398       8.81899973       0.02619629      -0.01114143       0.05776901
Ar       0.25514555      10.03285119      12.05589360       0.15132165      -0.01870321      -0.00212679
Ar       4.67753632      16.62059617      14.14583876       0.00340784      -0.01430401      -0.02118256
Ar      13.76491123       7.46221208      14.27428798      -0.03694082       0.02895006       0.02295566
Ar      11.29756836       9.27341051      15.79335519      -0.05131452      -0.08890147      -0.01807347
Ar      15.40438784      12.04700926      15.79949445      -0.08377577      -0.05034742       0.02494971
Ar       1.63103085      12.75710248      17.28687885       0.03184980       0.04288131       0.00987390
Ar       1.83763757      13.04217118      13.46258396       0.09341319       0.05673560      -0.03304189
Ar      13.97133480      13.14748154       9.51652362      -0.05096634      -0.09470829      -0.02460867
Ar       7.99788211      11.10372127      12.21049276      -0.01488974       0.05560209       0.04064679
Ar       5.61519011      13.01036897      14.03386974      -0.06567076      -0.02161166       0.04728794
Ar      12.23080786      14.07678337      16.46834226       0.03384591       0.07886964       0.09756644
Ar       7.01651168      16.87684286       2.61072019       0.01126339      -0.05777988       0.05553201
Ar      11.01913963      16.37237272      10.02730987      -0.03300964       0.01607141       0.04006726
Ar      10.31777651      16.84031327      14.52257333       0.04789698      -0.02018696       0.10133064
Ar       7.90204445       6.46533926      11.11163871       0.05726329      -0.01052162      -0.00787458
Ar       7.51654427      14.91850209      11.24382033       0.04016046      -0.02267743       0.12252235
Ar       3.71572923      17.04159133       9.90515287       0.05424426       0.03147230       0.08297147
Ar      11.15907193      12.88914693      11.88895029       0.11933473      -0.03291452       0.03432785
Ar      13.88751087      10.76880087      12.60636628       0.02084226       0.02767819      -0.00351418
Ar      16.65949892      10.77624758       2.10119280      -0.05020595       0.12496734      -0.10750346
