108
Lattice="17.35 0.0 0.0 0.0 17.35 0.0 0.0 0.0 17.35" Properties=species:S:1:pos:R:3:momenta:R:3 pbc="T T T"
Ar       0.88257007      11.99335938       5.79621444      -0.14067305      -0.01749918       0.03950697
Ar       7.67138770      10.61425765       6.99759259       0.00780639       0.03770968      -0.04041153
Ar       5.65184052      12.70459982       2.03623253       0.00203329      -0.06664801       0.04034229
Ar      17.12817929       6.36284140       9.26529335      -0.03858245      -0.02036033      -0.03331806
Ar       9.08008435       3.80858495      15.06884170       0.05758387       0.06937601       0.05709777
Ar       4.48005649       8.57094858      10.23442217       0.00252963       0.08773879       0.08690533
Ar      16.86628249       4.52037210      12.18519340       0.02734415      -0.04728311      -0.05828553
Ar      13.65876031       4.58023030       9.63187451       0.06416803      -0.03832602      -0.04927879
Ar       8.76220261       4.15349183       5.17790625      -0.03413852      -0.00771302       0.05178408
Ar      12.43001724       4.03860240       5.53280469      -0.11882407      -0.03640615       0.04002924
Ar       1.56494572      14.36408360       8.24405683       0.02571668       0.08561491      -0.11431362
Ar      15.18654589      16.86570114       2.00437122       0.02133540      -0.02014006      -0.08464993
Ar       9.27141047       8.21315045       0.25703115      -0.04404072       0.08615401       0.05820849
Ar       6.46959743       2.06684925       7.19037001      -0.08134136       0.00169226      -0.06954914
Ar       6.04790855       5.79059940       7.63408441      -0.04602965       0.04697530       0.06861707
Ar       4.80167864       2.80742728       0.68890752      -0.01744457       0.03047882       0.01518014
Ar       2.12905814       0.69979898       1.03438924       0.07507338      -0.02579514      -0.08191029
Ar      11.32194199       3.10806103       1.04741519      -0.01648772      -0.03424890       0.04057989
Ar       6.12039599       5.87376588      12.12039283       0.03257705      -0.13270122       0.05567647
Ar       0.37462841       8.44962595       4.76224616       0.00688394      -0.03951486       0.12578379
Ar      13.56694640      16.18394815       5.26135162      -0.01634533       0.05625906      -0.01978795
Ar       6.98744742      15.70023642       7.10897940       0.13511134       0.01256799      -0.06244532
Ar       4.70165270       3.08986234      14.59200579      -0.01517237      -0.00212069      -0.04835617
Ar       4.00862871       9.27835493       4.30914869      -0.10539469      -0.05359374      -0.14583260
Ar      11.23266289      15.89957156       2.76295757       0.00378544      -0.01279648       0.06873414
Ar       6.84602951       0.11537685      14.74860763      -0.05635929       0.02261779      -0.00081697
Ar       5.33009008       6.16350556      15.70936499      -0.01251222       0.03772674      -0.09359988
Ar      11.69519883       0.94707360      14.70526943       0.04908654      -0.08397538      -0.01302293
Ar      12.55105906      10.71573114       8.13438417       0.06636958       0.02063316      -0.00217935
Ar       4.19551846      16.08570211      11.55499399       0.02218465       0.05206765       0.04414631
Ar       5.50895231       8.70239089       0.77714165      -0.03327762       0.07655055       0.03881710
Ar      16.17849304      13.96246812       3.71960752       0.01568812      -0.02073103      -0.03327002
Ar       7.16649585       7.49875973       4.02592055       0.06499215      -0.08477848      -0.01079580
Ar      11.08214667       6.17081090       2.99217759       0.08382355       0.01667711      -0.08812132
Ar      15.23179548       3.44608861      16.94897292       0.03220069      -0.07296500       0.07987585
Ar      16.10583688       6.64740446      15.36325886      -0.03477766       0.04416595       0.04407472
Ar       1.33308277       2.96463914       5.60751542       0.01040474       0.07960881      -0.05930631
Ar       9.43683787       1.26105481      12.18192153       0.00797328       0.11923419       0.01247876
Ar       5.87051239       2.46575188      10.98313997       0.00289805      -0.01788940      -0.05559353
Ar       2.23116625       1.93128233      12.01202499       0.10507563      -0.02604230       0.00101456
Ar      15.59539884       5.31305809       5.37295947      -0.02738300      -0.04422081       0.00769094
Ar      10.53634708       9.03519729       5.15392819       0.05532712      -0.03761348      -0.02353847
Ar       3.15743131       0.87167746       7.99984473       0.03494131      -0.02101804       0.05103811
Ar       6.73417203      11.68212119      16.03743700       0.01023120       0.00694972       0.04616382
Ar      11.96198897       6.41599093      16.41838542       0.01679647       0.08541226       0.07548747
Ar       1.49789367       3.52967155      15.84603543       0.05738582       0.02980034       0.02073783
Ar       4.05870284       9.32379084      14.40986770       0.00003971      -0.04844588      -0.01845703
Ar       1.90121338       4.36691274       2.06363411       0.01299023      -0.01392819       0.02920489
Ar       3.74755731      13.71795538      15.28476866       0.03374245      -0.09615500      -0.11617455
Ar       3.10329719       4.69349329       9.35634437      -0.06270536       0.00335145       0.01464250
Ar      14.48262468       1.62193241      11.95503832      -0.03344530      -0.01112047       0.01003057
Ar       3.03663472       5.58488040      12.70301240       0.01192961       0.04255058      -0.05084383
Ar       8.02289731       4.48929397       1.29121047       0.08084153       0.05971279       0.01101071
Ar       8.12722678       9.10185392      10.39435236       0.09448457      -0.04140657       0.04128925
Ar       2.15393056      10.47263445       1.44079148      -0.06242302       0.06359571       0.00957508
Ar       2.72975752       9.68178718       7.65687028      -0.00924678       0.01069489      -0.04283331
Ar       1.03688679      11.33809070      15.33647255      -0.03115111       0.02209995      -0.03476472
Ar       2.71876871       0.08760614      14.81847519      -0.07337862       0.04596046      -0.00866122
Ar      14.60548430      10.55285079       4.95383882      -0.05517728      -0.04202991       0.01591516
Ar      10.29186845       7.09627152       8.02391532       0.03031180      -0.08340466      -0.10210130
Ar      14.20791712      15.29849428      12.72287446       0.01375699      -0.03542149       0.03601025
Ar       3.14369138      16.62743921       4.38126358       0.02602747       0.05362413      -0.02753003
Ar       4.95416996       4.59366066       4.35074046       0.06955432       0.06427689      -0.11241851
Ar      16.28505508       2.63254704       3.14072648      -0.09517072       0.09750632       0.05834926
Ar      16.32416175       9.99042346       7.93115904       0.04005247      -0.03560333      -0.03710899
Ar       5.24696851      12.93854367       9.18854492       0.04378487      -0.04046007       0.08750854
Ar       5.64095096      16.49236096       0.87690531      -0.20576474      -0.00167499      -0.03974261
Ar      10.47341431      12.97176387      10.15041779      -0.05708399       0.01997458       0.05561604
Ar      11.09413772      13.81708105       6.08345996       0.02243092       0.03658078       0.05557546
Ar      10.11282669      11.10787996      15.23816128      -0.04217987       0.01235606       0.00677325
Ar       7.23788667      15.42974106       3.58310376       0.02624181       0.03986817       0.09682583
Ar      10.66154260       2.57923742       9.26087564       0.03707000       0.05288642      -0.01724747
Ar      13.63958971       7.50534747       7.90916004      -0.05673238       0.08824326       0.03352352
Ar      13.74436224      14.00012199       8.40108247      -0.06545061       0.08297345       0.02992127
Ar       6.83248255       1.61269778       3.54688885      -0.01029707       0.01140309      -0.03841455
Ar       7.53386762      15.40218286      11.09826933       0.05859022      -0.06379965       0.02603903
Ar       9.40985288      11.40659383       2.49127330       0.00570644       0.05150167      -0.02669742
Ar      15.99908588       0.55197005      15.26893559      -0.09291714       0.13331350       0.00810877
Ar      15.96331005      10.73927840       1.59285943       0.09797505      -0.00190291       0.04141721
Ar       0.22503334      16.70933438       6.15012580       0.02111806      -0.06649941       0.02203352
Ar      15.96173118      13.91347911      16.29758547      -0.02823056      -0.10396248       0.01803890
Ar       0.08135327       2.73533395       9.50667852       0.11008528      -0.00088339       0.05200680
Ar      10.23749960      14.22775443      13.21395170       0.03043621      -0.11017203       0.02390077
Ar       0.51814448      14.92815638      13.39459427      -0.04649390       0.07288797      -0.01774154
Ar      11.46635301       8.98066351      11.68044033      -0.00828056       0.00342871       0.03666633
Ar       2.68224584      12.62813069      11.47857743       0.01197808      -0.15260136      -0.05195799
Ar      14.92646448       8.42532963      12.21360771       0.05609350       0.08685243       0.05578119
Ar       4.40497905      13.31055027       5.42205143      -0.03800708      -0.03562847      -0.01870985
Ar       8.72400983       8.00072941      14.11271491      -0.10613999      -0.00906338      -0.04513012
Ar       8.56498995      14.34889477       0.32897218       0.06800086       0.05333543       0.01110185
Ar      13.16258981       5.26039930      13.32370960      -0.00417934      -0.05685254      -0.02063141
Ar      12.71947129       9.44890676       1.37066715      -0.02293982      -0.06915978      -0.01894817
Ar      16.55947695      16.12582633      10.05334549      -0.05815106      -0.01771417      -0.02716610
Ar      14.34173372       1.27457790       8.18992914       0.02303693       0.09837879      -0.01948667
Ar       1.12569238       9.21445913      12.40365946      -0.03156836      -0.08111151      -0.00936088
Ar      10.39401571      17.28322869       6.52127099       0.01570804       0.08811008       0.01017822
Ar      16.59218681      12.53292999      10.71199726       0.07578036      -0.08175840       0.06365949
Ar       1.82751745       7.22268282      17.07874701      -0.00937673       0.03784625      -0.05244261
Ar      12.26752203      14.82125650      16.50679412       0.04256287       0.05129664      -0.07973927
Ar       2.12161100      14.03808251       2.17477157      -0.07681222      -0.03619342       0.00664265
Ar      11.75737951      16.52373815      10.22804197       0.02277688       0.04366352      -0.02748822
Ar       9.08928496       0.77485013      17.24158108       0.01767581      -0.06661796      -0.02174410
Ar       9.50072410       5.76455178      11.26857459       0.02351246      -0.03184295       0.04102860
Ar       6.40350724      12.50535858      12.73181096      -0.02260777      -0.07616141       0.06969914
Ar      13.29312326      11.88613998      11.84348312      -0.02750490      -0.09435083      -0.04152314
Ar      12.63035139      12.72115610       3.21829368      -0.02216226      -0.05181559       0.00670212
Ar      13.98884715      11.27949630      15.29668936      -0.02121445      -0.03209684       0.03166941
Ar      15.98854627       6.35974758       1.62714868      -0.00604600       0.01993485       0.02703243
