108
Lattice="17.35 0.0 0.0 0.0 17.35 0.0 0.0 0.0 17.35" Properties=species:S:1:pos:R:3:momenta:R:3 pbc="T T T"
Ar      17.24177510      10.87354575       3.85514820       0.00893668       0.00447918       0.00531282
Ar       3.31156614       3.12603618      10.13078601       0.02742646      -0.00471277       0.04702484
Ar       8.52341766      17.07260926       6.95443941      -0.01363597       0.01999810       0.01706607
Ar       0.52455363       1.95142770       7.12797390       0.04137118       0.06052370       0.03120517
Ar       8.45159548       4.44001162      12.32370308       0.02119750      -0.04924805       0.00762817
Ar       7.69954454      10.44144551      14.34171933       0.06213343       0.11574441       0.01613756
Ar      16.54300350       2.33411174       0.61364554       0.01190430      -0.05117139      -0.04074395
Ar      13.69405547       3.28774649       7.37104513       0.03344823      -0.05727705       0.05058875
Ar       9.66395134       7.86759581       7.65400261       0.11647127       0.06439791      -0.04581167
Ar      14.56443819       7.36144622       3.17617348       0.04424695       0.00705838      -0.01640697
Ar       0.08173898      13.22465264      10.87844638      -0.02571612      -0.05078412       0.01480890
Ar      16.20303428      16.02702151       8.63959458      -0.01925923      -0.00167874      -0.07050455
Ar       4.95226572       8.33609647       6.35392802       0.06402766       0.01203148      -0.05234600
Ar       1.64587032       8.23567514       5.38897045      -0.06261701      -0.04443309       0.01841021
Ar       5.13965086       6.13584365      11.85911206       0.09113528       0.03009363       0.00965448
Ar      10.58622107       5.01846496       0.65778916       0.06884503       0.08998272       0.04946450
Ar       0.21008416      14.67746476       4.11069526       0.04887006      -0.04214390       0.13289645
Ar      11.38239840       8.85361431       4.30058750      -0.04262828       0.05555573       0.10727283
Ar       6.83500362       5.89730242       8.92449766       0.10405697       0.03876072       0.01137500
Ar      13.72616266      11.55483969       2.43135946      -0.09610519       0.01093630      -0.04573579
Ar      11.78159940       1.21507758       4.58553565      -0.01282202      -0.03235043       0.06324681
Ar       5.85679959       9.51043417       9.86092332       0.07814702       0.03022792      -0.02397392
Ar       0.11144844      11.73460399      14.33107523      -0.05182139       0.00668522       0.05085358
Ar       8.44143084       6.69059044       3.84503197       0.03056284      -0.09584496      -0.07964764
Ar      10.60316835       2.19173936      15.88902541      -0.06277836      -0.03770052      -0.03850535
Ar       4.90846026       3.74542553      14.69484127       0.00565622       0.07706273      -0.03214207
Ar       7.15579346       0.89847557      16.63881841       0.01456893       0.05533406      -0.07375401
Ar       7.98457676      12.41141284       0.16046255      -0.08940596       0.06577885       0.03773059
Ar      12.83949243      13.46346654       9.43365543       0.06330445       0.09434313       0.02232024
Ar       9.50593648      15.02346625      10.32430797      -0.02805531      -0.13319208       0.04354265
Ar       6.72556208       4.48385783       0.54376988      -0.00737438       0.07001198      -0.01651262
Ar      14.82544640      13.74821515      15.30824980       0.00206786       0.02083724      -0.04262275
Ar       7.60024195      10.66537198       5.95841566      -0.08990531       0.06643337       0.07727934
Ar      13.13601391       6.57989582       6.99739920      -0.07726197      -0.01512981       0.01624243
Ar      11.12189049       6.13943489      14.24467461      -0.00136490      -0.03144466      -0.01907590
Ar       7.46184981       6.95926534      14.87757944      -0.06513346       0.03824398       0.04909831
Ar      17.28891986       8.37109423       1.28485368      -0.02115844      -0.05818022       0.05047536
Ar      13.05836173       2.84505767      12.22775913      -0.09151522      -0.04693961      -0.04968609
Ar      11.43134893       0.37405714       9.29917307       0.06724588      -0.03282055       0.01931980
Ar       2.12432707      16.70973942      10.26183608       0.05353846      -0.04001497       0.02977411
Ar       0.49041505       5.39667948       4.08229810      -0.01699294      -0.10212568      -0.09128270
Ar       8.16305988      16.62683564       2.70591216       0.03112243      -0.09254436       0.01105828
Ar       5.79660288      14.27033301      11.66871809      -0.00335651      -0.01061704       0.07632518
Ar       3.65645627       6.27439196       1.72201904      -0.03719133      -0.02404542      -0.07594414
Ar      15.62023383       9.09777201       6.76887525       0.01809123       0.01514442       0.00166896
Ar      14.84726682      16.15642484       1.81985417      -0.05359998      -0.00686673      -0.01257145
Ar       2.80113417       9.33857722      12.48685176      -0.09497041      -0.10514615       0.06539827
Ar       0.54922433       4.86569626      16.47094903       0.06220487       0.01887344      -0.02440510
Ar       3.00000828      14.93594253      14.13016098       0.01168954      -0.04931367      -0.09847866
Ar       7.92052006       1.53160186      10.43943297       0.06495585       0.00830459      -0.05899597
Ar      15.90797973       9.11584330      10.34707380       0.08273352       0.12261575       0.07172712
Ar       1.69657848       1.41019289      13.16191203      -0.09049309      -0.00367925       0.16286087
Ar       3.53047872       5.11930796       5.84043151       0.03240429       0.04372632      -0.02687087
Ar      12.12983763       9.42208769       9.83906561       0.04156001      -0.03207560      -0.06857853
Ar       2.82827203      13.04004536       2.13311263      -0.05477943       0.04411641      -0.02653312
Ar       2.96027639       7.30841311       9.39809244      -0.06857405      -0.09221356       0.01684933
Ar       2.87105171       9.79746205       0.65929994      -0.14639205      -0.03757466      -0.07015548
Ar      17.03617407      16.11763815      13.04522991       0.05484574      -0.01644176       0.01590628
Ar      15.81279070       3.29572652      14.19250632       0.06429837       0.08273547       0.05192532
Ar      13.10535539      11.65832321       5.93238051      -0.06267020       0.02054249      -0.00514458
Ar      14.08015324      12.00592740      12.43470229       0.09607227      -0.08799913       0.02564029
Ar       5.61780677       2.31858372       6.80838876       0.05260071       0.03735430       0.03784906
Ar       0.91715129       0.59893231       3.19127833       0.01083376      -0.05360290       0.05638491
Ar      14.97514872       2.78307293       4.11661889       0.06065954       0.05240511      -0.02245418
Ar       1.52000252       5.51249603      12.37178418       0.03437099       0.07817958      -0.07979887
Ar       9.79557200      14.24794676       5.45222797      -0.10073748      -0.04406069      -0.01601331
Ar       4.80522809      16.62306166       4.11439015      -0.06568946      -0.00773365       0.01681647
Ar       8.49698986       2.89177916       3.48917275      -0.09188445      -0.06255882       0.06209314
Ar       5.30590084      15.22373273      17.31231480      -0.06677418       0.00351596      -0.05489894
Ar      14.47988424       9.76710881      16.77427218      -0.06327346      -0.00661466      -0.05272664
Ar       4.58748277       2.69753773       3.28505054       0.01137217       0.04148563       0.03855547
Ar       8.90946382       3.85983635       7.13907754      -0.05368928      -0.05345046      -0.06214658
Ar      11.22564121       9.84696814      14.26091521       0.03731264      -0.00712043       0.02172484
Ar      13.55590101      15.50895766       5.81044662      -0.00103204      -0.05556595      -0.04589348
Ar      12.78304327       1.72632070       1.13132956       0.11690302       0.00604162       0.03452820
Ar      13.54218749      16.31101522      12.17788099      -0.13316911       0.04196365      -0.02129689
Ar       6.74735959      13.54042267       3.45450880       0.02895881       0.05015048      -0.14174691
Ar       4.83021750      12.18220886      15.17241026      -0.02185130      -0.06055958      -0.07090852
Ar       0.31604976      16.69748186      16.41060009      -0.15210178       0.00186015      -0.06775572
Ar      11.37020222      14.99406880       2.23586915      -0.07088345       0.08386378       0.07716492
Ar      16.95619342      12.40571956       0.62925821       0.09050338      -0.05364167       0.01297879
Ar      17.30836443       6.03890864       8.07335343       0.00478605       0.13098829      -0.00349612
Ar       9.06013471      11.24000568       9.05490884       0.07306416       0.00624832      -0.01146223
Ar      16.88767478       8.28902212      14.87965783       0.03414711       0.03024151      -0.12074933
Ar       9.60417493      11.42576315       2.96753530      -0.05886896      -0.03504388      -0.02193307
Ar       7.78658686      14.97078258      14.52344509      -0.01372735      -0.02019950       0.07523511
Ar      14.00277624       6.50175589      12.06643336       0.04836205      -0.01856384       0.04503214
Ar       2.95056806      11.84487798       5.76576988       0.00805717      -0.05720589       0.01673693
Ar       7.65542815       9.02291734       0.60124138      -0.01015985      -0.00349925      -0.01648389
Ar       5.30786712       0.62503354      13.26116234       0.04306967       0.10679687       0.03204010
Ar      10.99175933       5.38200892       9.89229209      -0.06316413      -0.03699089       0.02128064
Ar      11.41363341      12.43253685      17.21176511      -0.02132500       0.01580638      -0.05395557
Ar       5.68898514      15.26402252       8.10258748      -0.06194064      -0.03308096      -0.03577498
Ar       1.93518770      15.90445288       6.56211282      -0.08005587      -0.01793042      -0.12230141
Ar      14.38046829       0.06518844      15.55898587       0.02451626      -0.05071540       0.02384460
Ar      11.29376485       4.74667593       4.31533796       0.02500894       0.07409981       0.07441358
Ar       1.34393672      10.39574429       8.46948255       0.03295174       0.02045625       0.00996494
Ar       3.71117220       7.06128944      15.44878109       0.03404792       0.01079698      -0.05747975
Ar       5.48370753      10.01793870       3.33223724      -0.02810232       0.01449352      -0.05483630
Ar       3.41485189       1.22782628       0.28562627       0.01037415      -0.06634554       0.07314796
Ar      16.04946340       1.73935193      10.08570553       0.02181235       0.01314938       0.01161327
Ar      11.34484627      15.95560196      16.09791366      -0.06720037       0.01999921       0.02232301
Ar       8.95481540       8.12744542      11.64460533       0.09583415       0.01538676       0.09347195
Ar       9.23667746       0.37888443      13.20550656       0.01246333       0.02787704      -0.04530144
Ar      10.48602246      13.60279692      13.18995475       0.09934753      -0.02288067       0.00486484
Ar      16.15009318      12.53329889       7.60280036       0.01295945       0.01684903      -0.02201540
Ar      14.08260353       6.24657895      17.04556562      -0.00980870      -0.01695550       0.04790875
Ar      11.06192765       8.69572786       0.65963722       0.07955984      -0.02055875       0.01979697
