108
Lattice="17.35 0.0 0.0 0.0 17.35 0.0 0.0 0.0 17.35" Properties=species:S:1:pos:R:3:momenta:R:3 pbc="T T T"
Ar       4.27004631       2.87167576       5.98344504      -0.00847922      -0.05915459       0.00578467
Ar       6.57782421       5.89164319       1.61677807      -0.05968195      -0.02613079       0.00616821
Ar       9.71968178       8.62197297       3.80102454      -0.04226321       0.03370259       0.03954338
Ar      14.23163322       7.79877285       8.78736132       0.06836038       0.04110178       0.00630484
Ar       3.08529062       3.53924353       9.22119745       0.05690062       0.04637330      -0.02424091
Ar       3.44542823       4.35583408       2.50750532      -0.08910653       0.01190220       0.16735170
Ar      13.08441618       4.91479070      16.94770592       0.02308222       0.01976857      -0.05629436
Ar      15.99637533       4.45246169       8.72380884      -0.06650451       0.11398920      -0.00237181
Ar      10.50602700       5.18595191       5.35429950      -0.04063781       0.01403302       0.09161977
Ar      14.26234151      16.76785656      15.47357247      -0.06134487      -0.09246593      -0.02998708
Ar      11.87115005      11.27610805       9.60455702       0.01759997      -0.04330584       0.00072712
Ar       0.84373466       3.01839787       6.31855605       0.00604637       0.05421107       0.00987863
Ar      17.15292582       4.18499681       3.15096906       0.01334335      -0.00776097       0.03063480
Ar       3.98181484       6.07897665      16.20429251       0.00788205       0.06013545       0.04731509
Ar       6.96644163       2.45141132       2.35050388      -0.04689873       0.06946557      -0.00303448
Ar       0.80875903       0.03227961       2.51116586      -0.04077009       0.06949297       0.01171740
Ar       5.11719583      17.19426188       7.35286675      -0.02437029      -0.14329593      -0.05642418
Ar      11.06344700       2.22162058       1.04698404       0.01138927       0.09647516      -0.05584937
Ar       6.07086809       5.96892667       9.21955987       0.02511743       0.02841122      -0.01650584
Ar       2.21844009       9.07843131      17.04693856      -0.00408152       0.05807751       0.00461186
Ar      14.20458666       5.23410706       5.43934806      -0.01779568       0.07697087      -0.09658238
Ar       0.10261919       0.97384323       9.45201966      -0.02825505       0.01756943      -0.05243880
Ar       4.14733922       3.03672829      14.18243199       0.00698870      -0.08658028       0.01932730
Ar       3.53490298       7.67732048       3.81401254      -0.06726618      -0.12301835       0.01732125
Ar      12.88052475      15.70669433       3.88509381       0.01020143      -0.03740493       0.01827327
Ar       7.21926875       3.45823246      16.32126902       0.03586176       0.04620449      -0.01704974
Ar       7.13796884       4.79661161      12.67315370      -0.04070465      -0.06358859      -0.02134274
Ar       9.78212753       1.12750655      11.68914860       0.03297728      -0.02034763       0.00301600
Ar      13.99479833      14.68944791      11.67867789      -0.07286218      -0.12786430      -0.15526838
Ar       3.24205714       0.86464710      11.24846556       0.09165134      -0.09872242      -0.00487685
Ar       9.93977142       6.09495752       0.85119092      -0.01006919       0.04522269      -0.13472218
Ar      12.80750708       2.69717225       7.73945835       0.01192892      -0.02915191      -0.00589490
Ar       6.73556351       7.98145132       6.32510471       0.06777981      -0.05645293      -0.02820719
Ar      10.30678333       5.85693599      14.69542739      -0.00591685      -0.05027968       0.13226429
Ar       2.02571735      15.14302438      17.19489819       0.05210773       0.02257527      -0.03705691
Ar       0.68355560       7.14859482       9.97721436      -0.04589522      -0.13911812      -0.07251366
Ar       0.86458331       6.01519638      14.59183621       0.04622115       0.03448162       0.07046830
Ar       0.69717581       2.16876504      15.79292880       0.03933498       0.03608754      -0.07555045
Ar       7.59859004       3.99280945       6.48527629       0.04722670      -0.00154234      -0.01336941
Ar       6.50641963       2.09584060       9.89952900      -0.03920161       0.05840267      -0.04544509
Ar      17.16901706       7.15434384       5.89063665       0.08443902      -0.03104991       0.01067821
Ar      10.24633264       8.65832132       7.49633809       0.00020380       0.04593474       0.07240196
Ar       0.41830043       3.65300920      12.02683125       0.01720714      -0.00892090      -0.02303729
Ar       9.31202088      13.33420093      16.96128022       0.09477352      -0.10561375      -0.06475392
Ar       7.20705677       7.30724766      14.98955328      -0.04232946      -0.04157280      -0.05273529
Ar      15.16214450       6.88760360      12.13687396       0.08087748      -0.11240985       0.05842139
Ar       5.49783576       9.79373752      12.39927366       0.05263004       0.02018099      -0.04524805
Ar       3.24078105       6.28383356      11.82629785       0.03699992       0.06369433      -0.01554914
Ar      15.43600084       7.90800068      15.62175116      -0.02252777       0.02791747      -0.07942613
Ar       0.28735927      16.81972984      12.92966893       0.01688835      -0.00647562       0.05262197
Ar      11.68504713       1.64545519      14.87419999       0.04307081       0.05857611       0.05411858
Ar      14.69938041       3.62507863      13.92909985       0.03931651       0.00758648      -0.00779135
Ar      13.97721757       2.44189621       3.67437651      -0.00316774      -0.00057420      -0.01053133
Ar       8.02482595      12.01850899       9.43144204      -0.02401680       0.02248679      -0.04500437
Ar       0.15381102      10.52950168       4.42391143      -0.00740660      -0.00066247       0.01930623
Ar      16.97566454      10.29482632       8.27292516       0.05954647      -0.00538500      -0.02259365
Ar       5.12295460      10.28258088       2.36817351       0.05886890       0.01808741       0.09900829
Ar       6.07517590      13.64497949       1.93827448      -0.08042352       0.05861761      -0.06111913
Ar      13.63602099       9.02337902       5.32931353      -0.05960384       0.09109731       0.06092705
Ar       6.25673226      12.30918742       5.45675637      -0.06875982      -0.06611796      -0.01821995
Ar      15.30241000      15.01200428       1.43607069      -0.04029967       0.02578085       0.09464949
Ar       9.11260769      14.92716297       3.81331987      -0.00256457      -0.01530886       0.05058987
Ar       8.01055016      16.89405029       0.56554548      -0.02111483      -0.00922424       0.01558129
Ar      17.32480665       7.73224011       1.94073860       0.03762401      -0.00749102       0.01900914
Ar       3.27224423      10.35302868       6.17707929      -0.07752981       0.04251500       0.07953801
Ar      12.71239215      16.61224798       8.15564553      -0.05966872      -0.03090045       0.03194279
Ar       3.93356894       1.71067680      17.26306923       0.04738084      -0.05366862      -0.02466558
Ar      10.31864395      15.11734938      10.09999171       0.01566943       0.01455508      -0.04621888
Ar      14.89513344      13.11435983       4.53721920       0.01853264       0.00021193       0.00923357
Ar       8.03034232       9.46300059       0.49780486      -0.03056805      -0.05892392      -0.06241934
Ar      10.59901998       1.48551295       5.01505939      -0.03153532       0.06298749      -0.10037544
Ar       9.19617738       0.72928818       8.05774262      -0.05958768       0.03064691      -0.00666901
Ar      10.77691757      11.97864388       6.06915051      -0.01667752      -0.10450487      -0.04919309
Ar      16.94714848      13.68562422      10.68539740      -0.01443212      -0.02105069      -0.05410072
Ar       0.76429775      13.63508049       7.45503718       0.06114402       0.03030811      -0.06590467
Ar       4.29298686      13.61509218       8.57296767       0.01244635      -0.03633883       0.20264791
Ar      11.67084777      12.06874548       2.46037583      -0.01850459      -0.02578710       0.00973634
Ar      15.24906092       2.35433235       0.30546385       0.01742120       0.08296331       0.02771342
Ar      13.63095812       7.40318492       2.33213231       0.01183977       0.04474518       0.02211410
Ar       8.55768859      14.75656211       7.43374203      -0.03880490       0.02707427       0.04730344
Ar       3.00098108      14.48159047       4.77038684      -0.06655552      -0.07252363      -0.10717573
Ar      15.20879353       0.40946402       5.95549641      -0.01754241      -0.01342130      -0.05863006
Ar       7.26397492       0.39077748      14.32975047       0.02388357      -0.07512991       0.04784820
Ar       2.05875729      12.10064540       2.10045221      -0.04722815       0.06799666       0.01918601
Ar       8.64480860       7.68077212      11.36873397       0.06659754       0.05217853      -0.00422135
Ar       2.96414557       6.50231927       6.97048731       0.03945083       0.05235186      -0.01738603
Ar      12.36509569       8.75101510      11.77106006      -0.02347236      -0.01116946       0.07520625
Ar       3.02733142      10.32778468       9.88272516      -0.00962145       0.02718242       0.07364395
Ar       1.65551543       9.63019553      12.90747369      -0.03130082      -0.01274314      -0.03313893
Ar       3.94046100      16.59674723      14.62349725       0.06661346       0.01421232       0.09271628
Ar      12.35687605       4.50873432      11.63821975      -0.02217215       0.04276217      -0.03724758
Ar      11.89578761       9.18308787      17.07523430      -0.03765734      -0.05555832       0.00017402
Ar      12.74266557      13.29766831      16.54397772      -0.07621343      -0.03798277       0.05161701
Ar      17.23170830      11.98657621      15.65983668      -0.00764235       0.04939872      -0.02517601
Ar       2.97272715      13.40347597      12.22972933      -0.05401289       0.04685972      -0.14980402
Ar      14.68677732      13.05283543       8.24836793       0.02436920       0.11709733      -0.05117922
Ar       8.53664169      10.45594865      14.29650078      -0.03415354      -0.05251657       0.07341683
Ar       4.76300399      11.63613828      15.62897799       0.03696133      -0.02761597      -0.01858944
Ar      11.10474949      15.97787004       0.99823813      -0.01402525      -0.04852546       0.07096393
Ar       5.05345181      16.86989636       2.89682560       0.00613951       0.04640939      -0.03169692
Ar      13.39197476       1.00458603      11.34525004       0.07180984       0.01755064       0.05424462
Ar       9.84798544      14.72359676      13.83165648      -0.06030885      -0.08332886       0.02209738
Ar       9.69527641       4.29799847       9.53062745       0.01156745      -0.02514460      -0.02248309
Ar       6.42754986      13.54358839      13.25140022       0.09422716      -0.03647703      -0.01432497
Ar       6.62316429      16.07994886      10.83408804       0.02529229       0.03642462       0.01218635
Ar      12.10298963      12.05991047      13.39354670       0.04545554      -0.02708265      -0.03648057
Ar      15.37431081      10.56376213      11.71970369       0.05939285       0.07274930       0.03567398
Ar      14.91709793      10.94050096       1.26973101      -0.01710706       0.05359104       0.11927121
