108
Lattice="17.35 0.0 0.0 0.0 17.35 0.0 0.0 0.0 17.35" Properties=species:S:1:pos:R:3:momenta:R:3 pbc="T T T"
Ar       7.56690584       1.40762066       5.71602551       0.00981827      -0.03781158      -0.07648747
Ar       7.52752203       5.21118708       6.59763249      -0.02847386       0.01160639      -0.03736831
Ar       8.92240223       7.48171352       3.59775346       0.00010535       0.02871844      -0.04361131
Ar      13.80927506       9.18180634       7.02560574       0.07408642      -0.03343685       0.03600680
Ar       6.19113284       2.03553497       8.85445579       0.08840045       0.09196408      -0.10235769
Ar       4.98086878       2.10969052       3.37231090       0.03193367       0.04590453       0.04740438
Ar      15.26285424       3.79702896       4.95844648       0.05299987      -0.01518732      -0.07087718
Ar      13.84859478       5.10305076       8.20985653      -0.04347842      -0.04411938       0.01030666
Ar      10.96521947       3.88842106       6.06979182       0.00230021      -0.06105195       0.00779814
Ar      17.26595067       2.04171548       0.93837743      -0.01223405      -0.00109283       0.06303572
Ar      11.16332583       7.13166910       7.25970893       0.00560158      -0.02542123       0.00289153
Ar       3.03553110       3.32940977       6.71693614      -0.04268204      -0.08776765      -0.07266422
Ar      15.34892691       5.49963389       0.76440519       0.05469266       0.02088476      -0.06884452
Ar       5.04637080       5.34403777       4.03116055      -0.05964182       0.02094195      -0.10816561
Ar       8.32437820       3.88686400       3.28664738       0.06910786       0.12184897       0.01307132
Ar       0.66261494       0.77945851       4.69194981       0.02092425      -0.00778068       0.01625491
Ar       6.97776841      16.19181549       3.27515385      -0.06197847       0.02128396       0.03492683
Ar      12.44765631       3.50626170       2.46590803      -0.02466768      -0.03889938      -0.07171744
Ar       3.98950877       6.98878455       7.99695876      -0.00298820      -0.04469603       0.06430692
Ar       2.35498294       7.70299051       0.66580507      -0.03698388      -0.03164922       0.10433552
Ar      13.47355413       6.69548929       3.98482259       0.04147760      -0.01698099       0.03233119
Ar      13.94983954       0.06150616       9.82446149       0.01470014      -0.00435518       0.02388485
Ar       2.53876354       4.23482808       1.19638152       0.01709714       0.10459103      -0.09914554
Ar       1.64142645       6.37348715       3.89256312       0.00279978       0.00630788      -0.03198515
Ar      14.44055810       0.64676916       2.69629880      -0.04747494       0.05143128      -0.03537619
Ar       5.90560745       3.85887392       0.15040197       0.09405303       0.05570358       0.01052182
Ar       4.93860090       1.96986876      13.36034486       0.09843114      -0.04246875      -0.09248137
Ar       9.90782572       1.83104710      13.99204870      -0.03356511       0.00726873      -0.01824609
Ar      15.67336341      16.81771793      16.12531160      -0.01628072       0.08525934       0.06083975
Ar      16.90996957       2.35501107       8.48865548      -0.08649148      -0.01465128       0.04295886
Ar      11.58137998       4.40313213      16.24419557       0.01643626      -0.00529328      -0.02502191
Ar      11.28374281       2.72023475       9.48402841       0.00519960      -0.02682733       0.04806821
Ar       7.27341475       8.42769557       8.79897098       0.02555654       0.01570784       0.03900907
Ar       8.34873475       4.98086585      14.60487007       0.00559760       0.02837224       0.02540947
Ar       1.68054952      16.82827278      14.67795127       0.02508377      -0.04749612       0.02606229
Ar       1.45566930       6.75181809      10.50504694      -0.04539781      -0.06475562      -0.09081498
Ar       0.50825107       6.62424271      14.44526427       0.05338660      -0.05854810      -0.12446230
Ar       1.59938499       3.09105599      14.77424593      -0.05234758       0.06351905      -0.05854309
Ar       7.38943323       5.30637443      10.62978580      -0.09247218      -0.02209228      -0.12165548
Ar       7.90311725       0.25564433      11.65459659      -0.00487127      -0.01703966       0.05469319
Ar      17.16294463       7.37730503       7.03712964      -0.06613918      -0.00358483      -0.05977664
Ar      11.05849539       5.92509657      10.89583572      -0.02979908      -0.02492029      -0.02802027
Ar      16.89731692       3.92408083      12.15048677      -0.00584833      -0.02389668      -0.09898560
Ar       8.46744767       7.59911369      16.98099683      -0.02936947       0.04468758       0.00881842
Ar       4.26561035       6.39321475      14.89794987       0.07962879       0.02094860       0.00953249
Ar      14.34477292       6.67901535      11.55946507      -0.08750124      -0.01187537       0.00419029
Ar       5.21802948       9.94510509      15.63464584       0.01850408      -0.02070185       0.07736802
Ar       3.91240062       4.26063577      10.94047057      -0.03981654      -0.01177972       0.01419555
Ar      13.71478773       7.15065798      15.05088595       0.07375164      -0.05085696       0.00484567
Ar       2.50505943       0.69994814      11.07895225       0.07741038      -0.00734318       0.10652860
Ar      14.95977205       3.05632757      15.00402981      -0.00375617       0.06249833      -0.03678547
Ar      12.97316188       2.95958793      12.29524898      -0.05270594      -0.04567813       0.06436032
Ar      13.48731217       1.30920230       6.66727513       0.00362288       0.12506123       0.10757780
Ar       5.18889865      12.04519773       9.53297324      -0.01185983       0.13237089       0.06525420
Ar       1.16742114      11.76844704       3.78079433      -0.05772188       0.00640325       0.10040244
Ar      16.43095844      11.82802737       7.09382713      -0.06427301      -0.05887956       0.02942153
Ar       5.54568264       8.83006266       1.68875776       0.06038901      -0.03397344       0.13261275
Ar       5.56909632      12.82321628       4.91744215      -0.06945357       0.01234403       0.04683924
Ar      12.78483733      10.38182823       3.81750276       0.08742790      -0.06212134      -0.00437479
Ar       7.28190114       9.71580904       5.42824124       0.05209705      -0.06712181       0.10352809
Ar       1.17531669      15.80367118       0.63548981       0.04092831       0.00990057      -0.02139659
Ar       7.71731655      14.02227073       1.00189757      -0.01759088      -0.06972676      -0.06655472
Ar       8.85110043       0.95452867       0.90595562       0.01452610      -0.07369817      -0.10700038
Ar      16.09030551       9.06837267       3.78245322      -0.06275062       0.10931070       0.00590484
Ar       2.89709227       9.52260847       5.76971744       0.05651552       0.00913928       0.03790074
Ar      13.09453190      14.72041618       6.74877579      -0.06860540       0.05683825       0.01273895
Ar       4.44835868      13.43656759      16.58504108       0.01221903       0.02368470      -0.11579106
Ar      11.09917466      11.03800393       6.82551132       0.01862827      -0.01466122       0.00851022
Ar      15.79550481      14.71960961       4.34361983      -0.01320517       0.03078251      -0.02664110
Ar       9.09371933      11.04078402       2.06351664      -0.03999979       0.03825271       0.02720731
Ar      10.70867520      17.17806326       3.89981592      -0.04073938       0.03175071      -0.03082382
Ar      10.39311957      16.86851574       7.62398576      -0.02616107      -0.01588333       0.03147489
Ar      15.17046252      12.12288751       1.14640746      -0.14230454       0.03131826       0.01557408
Ar       0.75557458      15.95801099       8.58404776       0.00251333       0.03410275      -0.11163489
Ar       2.91540484      13.50215493       7.34979116       0.12110780       0.04744725      -0.05077959
Ar       8.24469268      13.71273742       8.49565348       0.05963108      -0.10900915      -0.00414632
Ar      11.36317559      14.32244957       1.54098670      -0.09541488       0.00961860       0.05036433
Ar      11.99641095       0.47724447      17.00760352      -0.09667171      -0.00316196      -0.07209078
Ar      11.79195188       7.31901240       0.80519156       0.04415239      -0.06284161       0.04538821
Ar       9.20042700      13.80672942       4.57285109      -0.03953252       0.06691635      -0.03702655
Ar       3.21946910      15.53342627       3.62784667      -0.04792828      -0.03113086       0.06561692
Ar       3.88253952      17.34527666       6.88804858      -0.01849311       0.01678481      -0.06888139
Ar       6.94614143      17.06040885      15.46020193      -0.07118838       0.01853989      -0.07962635
Ar       2.47879363      11.05203486       0.45586107      -0.01879521       0.07270724      -0.03688649
Ar       1.43078809      10.01738907      13.36912508       0.04545833      -0.04857318       0.04478160
Ar       2.34735664       9.88606533       9.16293573       0.03595565      -0.05042960       0.06280193
Ar      12.56859590      10.00335284      10.31335598       0.07379945       0.03112782       0.01990657
Ar      16.04338970       9.61126258       9.98005598      -0.10246787       0.09513081      -0.04013238
Ar      15.26711964      13.63781261       9.96298782      -0.07244436       0.03095636      -0.00488973
Ar       4.89197620      14.74171479      13.41430402       0.02441059       0.05810947       0.04967474
Ar      10.46581687       8.10818696      14.13824967      -0.00401715      -0.01837113      -0.03451833
Ar      12.04174493      10.70958412      16.46505680       0.03723570      -0.05143574      -0.03675159
Ar      15.14215220      11.58901537      12.77365798       0.01907898      -0.07512088       0.03934317
Ar       0.82168453      13.46723943      15.17974530       0.10619998      -0.03767032       0.01606343
Ar       1.53828258      13.42166982      10.91347092       0.02851967       0.01056491       0.00551809
Ar      16.34452879      15.59860000      12.91885103      -0.02591579      -0.05123305       0.12394253
Ar       7.89383124      10.56912480      11.41369748       0.05516605       0.03290975       0.05182377
Ar       8.09433007      12.12640063      15.50704693       0.04134445      -0.00667889       0.01115793
Ar      13.73465132      14.10778448      15.89276334       0.02667494       0.00032035      -0.00570630
Ar       3.73561303       0.55133555       0.23510508      -0.00749461       0.01775738       0.10370069
Ar      12.74262067      16.01228376      13.13844730       0.04801482       0.01006813      -0.03672990
Ar      10.31947314      15.24261556      15.32047062       0.04178056      -0.05354739       0.00125740
Ar       4.26268844       8.26961183      11.91672545       0.02987548      -0.10531643       0.04258133
Ar       8.26359205      14.27970609      12.28259858       0.05400039       0.04335445      -0.00139419
Ar       4.68748211      15.61714673       9.68643451      -0.07788920      -0.03405666      -0.01956412
Ar      11.55629924      14.69851102      10.25864994       0.03067293      -0.04200095       0.03300824
Ar      11.00026687      12.17031391      13.46529459       0.02607034       0.03717222       0.11250004
Ar      16.51736006      10.18952331      16.07473547      -0.05721800      -0.03349104      -0.07159954
