108
Lattice="17.35 0.0 0.0 0.0 17.35 0.0 0.0 0.0 17.35" Properties=species:S:1:pos:R:3:momenta:R:3 pbc="T T T"
Ar       2.06697538       8.99988152       6.40853639      -0.00504532      -0.00001741       0.01158437
Ar       1.51531242      16.65398250       8.34258752      -0.00346295      -0.06043855      -0.00399362
Ar       3.87580452      10.81556578      10.74737276       0.00133861      -0.01898139       0.00514362
Ar      10.30220028       2.84599070       4.76317213      -0.06417366       0.00443126       0.00592231
Ar       4.75915526      15.93133877      15.32518956       0.06009679      -0.03910743       0.07879835
Ar      13.05713752       9.50525208      14.00378246       0.05834385      -0.07685991       0.04918466
Ar       0.44888979      16.59500949       2.59275382      -0.05332388      -0.00852267       0.03544897
Ar      14.63416820       4.91747789       9.15047432       0.08134802       0.04585490       0.03444755
Ar      13.55520528       2.73948847      12.04774864      -0.00358765      -0.01770468      -0.07090633
Ar      13.49628025       4.97380851       4.81324845       0.01699493      -0.02587434       0.04909866
Ar       5.45262967       7.72365211       8.85173498       0.02047993       0.02454294       0.00361942
Ar      15.19521173      11.93518069       7.16237124       0.03161741       0.02303105       0.06641894
Ar       3.09070465       2.59715478       9.94956553      -0.03419629       0.02247476      -0.06839689
Ar       4.82320384       6.87564322       5.22961900       0.02704033       0.04371067       0.05621444
Ar       5.28310483       0.85353632      12.30865512       0.00275803      -0.07987979      -0.06373454
Ar       3.96714480       9.02576818      16.20535079       0.01759623       0.09561684      -0.05606716
Ar      13.32559203       4.42498739       0.37756693       0.08363014      -0.00765278       0.08421257
Ar      16.92011974       1.91715460      17.02824371       0.02112739       0.07086426       0.04293451
Ar       4.73370711       3.53957457       6.47216152       0.00385465       0.04726097      -0.13526020
Ar      12.96554550      10.56037442       4.37761338      -0.12952111      -0.09336705      -0.04452136
Ar      10.35533006       8.61094390       2.77068451       0.00241994       0.00532609      -0.02113488
Ar       7.89717133      10.64399660       9.93446013      -0.03831711      -0.01171066       0.08168465
Ar       6.21867302       3.88342204      10.59327772       0.00838217      -0.06548331       0.04446930
Ar      11.69188600      11.54048144       9.01531724       0.02726716       0.01302375      -0.02006263
Ar       6.31013506       8.01332486      12.14701789      -0.01237883       0.03993087       0.05979674
Ar       3.13864188       1.78614006      16.38722922       0.07306696      -0.06341832      -0.00620425
Ar      11.59541829      15.70721534      16.11768613       0.09667061       0.04614387       0.00854164
Ar       9.61189786      12.10425517       2.54718316      -0.02832520      -0.01154710       0.01800837
Ar      15.87524375      15.90702955       6.60347873      -0.04898063       0.03829172       0.04412248
Ar      10.61868342      14.94251231      10.22720428      -0.06176822      -0.06490495       0.00357508
Ar       3.48659929      17.10156241       4.93631236       0.01304728      -0.06913060      -0.00521280
Ar       9.90161981       4.47192297       1.01460766       0.03803700       0.04911054      -0.00066805
Ar       5.41574946      10.97232153       6.72030816       0.08196014      -0.02010853      -0.01028669
Ar      13.98220690       8.20713431      10.14732466       0.03203769      -0.00094903       0.06091185
Ar       2.41395836       8.47914974      12.59097721      -0.01850611       0.03440964       0.17321733
Ar       8.57411093      10.21423797      17.03238998      -0.08463710       0.02873842       0.00319881
Ar       2.82125040       4.92666997      12.65220177      -0.00369507      -0.03936841       0.00796750
Ar       9.41080249       5.29242763      14.48051672      -0.05293385       0.10434812       0.02170872
Ar      11.44978249       1.13775351       9.68831414      -0.03098250       0.00924434      -0.11921246
Ar      17.03988741      15.03241634      11.43784354       0.05471696      -0.07678766       0.08415378
Ar       4.71229475      17.22645919       1.63382365       0.00921866       0.07920488       0.04811294
Ar       3.55393711      15.53211778      11.31157191      -0.02046462      -0.02340756       0.04531205
Ar       5.64317761      11.75983913      13.98802682      -0.05188489      -0.00454145      -0.03812414
Ar      16.12207886       2.41690735       3.89888492       0.03926348      -0.11598184       0.02445684
Ar      -0.01894448       9.59104603       9.50271840      -0.12251693      -0.08969957       0.02503312
Ar      15.01554128      16.26138799       0.38785511      -0.04544866       0.09177110       0.03185417
Ar       9.20500266       9.51302364      13.56485416       0.06623043      -0.02481125      -0.05120655
Ar       9.94017827       7.78974468       9.95754786      -0.14899171      -0.04000369       0.00417815
Ar       1.99949647      12.96749726      13.96634745      -0.00329008       0.02317673       0.06732687
Ar       4.24037835      14.38507794       6.87910900       0.07499226      -0.05645008      -0.02871240
Ar       8.16487248       7.33298075       6.25821414      -0.00404240       0.08230124       0.00254057
Ar      15.51717968       7.84555795      15.59104529       0.00744835       0.03178661      -0.05399070
Ar       0.47647702       9.13809260       0.15063126      -0.04575236      -0.03600527       0.05008216
Ar      16.38803287      10.85325044      13.24043503       0.14262981       0.01863703      -0.01035473
Ar       6.05697751       3.35562034       0.65446263       0.02916211      -0.06106223      -0.03013022
Ar       5.57442393       0.35785589       7.81180696      -0.02747088      -0.07653144       0.05421239
Ar       3.74267465       6.60002823       2.08898042       0.04885160       0.00205283      -0.15060991
Ar      15.96150044       1.08213468       9.19716146      -0.00101956      -0.03289938      -0.02238305
Ar       0.27932419       2.62998910      11.99801828       0.05450129       0.07100004       0.05868665
Ar       7.52526621      14.35781361       5.04949334       0.00263139       0.01633306       0.02216949
Ar      14.51681989      12.62902780      10.56763117      -0.03751594       0.06875926       0.07934483
Ar      12.24139614      14.79254192       6.38818822       0.03220065      -0.00536453       0.03473411
Ar      13.49922138       0.98332751       5.91758778      -0.16482552      -0.06885882      -0.10933187
Ar      14.00116839       7.54752331       2.02838156       0.06411847      -0.01781952       0.00609078
Ar      17.16901745       3.74210258       7.14301605      -0.11759949       0.00424424      -0.03522452
Ar       9.54501258      17.25986583       7.03433561       0.01176200       0.06690680       0.09324275
Ar       2.60769576       2.43110559       2.76044325      -0.00310461      -0.01849209      -0.08285425
Ar       7.03753265       1.53664407       3.80214508      -0.03948777      -0.03770180      -0.04538349
Ar       2.71952560      10.47455502       2.99533272      -0.08600756       0.03847171      -0.06622445
Ar      12.57592853      11.59451857       0.50889090      -0.07576881       0.05113009       0.00017563
Ar       6.11068024       4.13114471      14.71470437       0.13781312       0.02775514      -0.02909810
Ar       7.92950279       3.16348572       7.73323039      -0.06694274      -0.03884649       0.04196132
Ar      14.98780931      13.84391533      15.01522220      -0.01721665       0.02707718       0.01591929
Ar      10.87698221      15.38396382       2.99096807      -0.04010791      -0.06039925      -0.03510341
Ar      11.31596499       7.89206357      16.80083626       0.02259648       0.01215173      -0.01252563
Ar      16.63711193       6.99253033      12.20478593       0.01125415       0.05363148      -0.03623530
Ar       4.36153470      13.96277805       3.21909001      -0.01416202       0.03094925       0.03385401
Ar      11.14835066       1.28270785      14.08830806      -0.07146256      -0.01791321      -0.07417035
Ar       2.18074689      14.39713120       0.38790819      -0.05698205      -0.13599068       0.01256724
Ar       0.94765582      13.70975296       4.75208911      -0.06076357      -0.04098162      -0.07430726
Ar      16.54910745      12.73878577       1.35424512       0.10602144      -0.03312508       0.07972990
Ar       9.79803818       3.69971551      11.21960693       0.05215839      -0.02714846      -0.02845019
Ar       8.37612930       0.09388602      10.36894705       0.04203717       0.00485663      -0.00246355
Ar       0.29528402       6.55820012       4.13311364      -0.01795371       0.02788218      -0.02086745
Ar       9.12514955      11.23235052       5.72012537       0.01019957       0.00348759       0.03789932
Ar      11.96130122      13.43561410      13.08362229       0.03885583      -0.04612249      -0.11362540
Ar      15.70103022       4.42769709      14.66231849       0.05796073      -0.01569180       0.00768678
Ar      14.38055639      14.34458381       3.86130238       0.09207954      -0.01424581       0.02194345
Ar       6.96323631       6.63071042       0.29943239       0.03277010       0.00605749      -0.00275100
Ar       7.83821356       0.63617027      15.55670466      -0.04816150       0.01014625      -0.00528985
Ar       7.52898499       5.32067789       3.73831561       0.01409607      -0.00226848      -0.01690478
Ar       9.77733502       0.79132540       0.90098911      -0.06039145       0.08164579      -0.01390238
Ar       2.53951234       5.65456821      16.37551349       0.06425656       0.01575251       0.01308632
Ar       1.26808634      12.64863011       8.36821482      -0.01027633      -0.02844654       0.00228873
Ar      16.52503106       5.48673395       1.11125817       0.01179733       0.07063636      -0.04796273
Ar       1.71703936       5.96131129       9.49218917      -0.07311855       0.03044720      -0.01796767
Ar       6.59542774      14.39914871      10.49353671       0.01114919      -0.05215955      -0.08302751
Ar      11.38354403       8.35250476       6.98753468       0.06015350      -0.00119227      -0.02400577
Ar       6.68384749       9.26803948       3.01354989      -0.05454806       0.04799903       0.01825401
Ar      12.95788808       0.60478413       2.53274520       0.10350458       0.05898794       0.00276590
Ar       0.84151507      17.11674102      14.70929239       0.00071094       0.01066085      -0.07339166
Ar       7.25237154      14.74690605       0.80036698       0.01160533       0.02989553      -0.01599289
Ar      12.79527010       5.71502126      13.56578909       0.05033031      -0.01455663      -0.01449045
Ar       8.33941849      15.28198755      13.30585328      -0.05554306      -0.04108972      -0.02803479
Ar      13.89754689      16.87552339      12.31692458       0.02640665       0.05295359       0.09263418
Ar      15.45895527       8.15499956       6.41681118      -0.10500887       0.05293056      -0.04456354
Ar      16.71703390      10.50850170       4.10774363      -0.05098252       0.00705133       0.05386265
Ar      11.01826443       4.89857716       7.79987068       0.07804911       0.07653694      -0.05106744
