108
Lattice="17.35 0.0 0.0 0.0 17.35 0.0 0.0 0.0 17.35" Properties=species:S:1:pos:R:3:momenta:R:3 pbc="T T T"
Ar       0.45370591      12.29538661       3.31132125       0.02459079       0.08150958      -0.04658213
Ar       3.53925575      17.05198430       9.09840046      -0.03639766       0.05806239      -0.08870237
Ar       2.39066933      11.01173704       8.92059557      -0.06779217       0.02086705      -0.05829950
Ar      13.17909330       2.28158870       5.90225250      -0.08796203       0.08463621       0.00654835
Ar       3.37408831      16.03893950      14.53145408      -0.03741165      -0.00037454       0.02368353
Ar      11.56378515      10.97019185      14.33332586       0.13620064      -0.08178854      -0.00466529
Ar       1.02829334       0.45741215      17.02554967      -0.08593721      -0.07336038      -0.09053729
Ar      15.37512957       4.24630730       9.41126080      -0.06877920       0.06652318       0.06821341
Ar      11.38126312       4.18210701      11.63240712      -0.01380900      -0.05511843       0.01033119
Ar      15.06629797       6.67002443       6.72821449       0.03002106      -0.07549218      -0.02841828
Ar       3.15808616       9.85836652       5.08670080      -0.04523073       0.03272949       0.00543747
Ar      15.11160840      13.60656448       6.17563080       0.01264209      -0.05773364      -0.01284342
Ar       3.83438705       6.24229757       8.69422929      -0.00172709      -0.07432971      -0.08961923
Ar       3.01973937       7.19785815       2.59095411      -0.04475129       0.03145668       0.04581649
Ar       5.03036975       1.44318880      12.26009910       0.05886049      -0.03784955      -0.01136657
Ar       5.23927865       8.75338626       0.60358541       0.02864687       0.03505796       0.01974799
Ar      13.67167458       3.39293202       1.71810744      -0.15456405       0.06382628       0.02944708
Ar      14.42243124       1.17806009      16.14301807      -0.03037975       0.05148422       0.02742431
Ar       4.37586824       5.39485800       5.09671644       0.02371139       0.04983328       0.03988471
Ar      13.94901840      14.21689856       2.66042179       0.09830135      -0.12054293      -0.05317992
Ar       9.94636131       3.49911420       3.68488522       0.02553766       0.05556601      -0.01861189
Ar       8.83466529      10.95058896       8.59683670       0.01458686       0.01307380       0.03617539
Ar       7.47788558       3.93425988      10.35438947       0.11206901      -0.08014584       0.09340898
Ar       8.94371983       7.34038144      10.05839106      -0.00738558       0.09926363       0.05824754
Ar       6.95635176       4.44671701      14.25330697      -0.02160622      -0.11039845       0.02099157
Ar       3.68836124       2.36730565      15.30536088      -0.03239399       0.02383551       0.01093363
Ar       8.30133091      16.03988611       0.74158473       0.03365172       0.02983053      -0.07615116
Ar       9.13604154       8.06815490       1.66009699       0.02490684       0.06761421      -0.00789576
Ar      13.40007250      14.85321156       9.22497883      -0.00980393      -0.02820786       0.04449980
Ar       9.65562943      13.70483173      12.64276642       0.10045335      -0.01604191       0.09283662
Ar       3.13023283       0.44095805       5.56240982      -0.01301240      -0.06335776      -0.03098021
Ar      11.10767941       0.30278670       2.37254040      -0.07988023      -0.03571138      -0.00506521
Ar       6.45436241      11.88281143       6.11060937       0.02408406      -0.00563025       0.07194675
Ar      13.66502710       6.88039351      11.55172311      -0.04968135       0.06881015       0.01659471
Ar       1.76913400       9.12459136      12.84592214       0.00044738       0.07776794       0.00358477
Ar       8.16583628       9.70885404      15.66670311       0.00681987       0.09781613      -0.02888286
Ar       3.83072875       5.09429991      12.65648247       0.05339135      -0.02309425       0.10398215
Ar      10.15661961       0.98352957      16.03579213       0.03644752       0.08511650       0.00341794
Ar      13.84390883       1.08955253       9.54603254       0.06278644      -0.08534832      -0.00934136
Ar       0.41499471      15.94515203      10.10807377       0.01921953      -0.05666663       0.06325932
Ar       3.81151892      16.86056962       1.62190162       0.02421468       0.06962745      -0.12690544
Ar       3.38859456      13.77107258      11.09441896      -0.01840672       0.07928059       0.07099722
Ar       5.89760645      12.04114718      14.26480139       0.06150365       0.02181152      -0.01824328
Ar      16.19098249       3.37363106       4.95591293      -0.09396972       0.09630559       0.04828904
Ar      15.87996833      12.41171848       9.39649739      -0.06831288       0.05589310       0.00367352
Ar      15.38923643      15.37515781      17.18028599      -0.05611750       0.07170449      -0.03810350
Ar       8.50639734      10.02691652      12.29641991       0.03507637       0.00361884      -0.04852946
Ar       5.17289479       8.10882688      14.24341665       0.01712728       0.04848081      -0.02499909
Ar       0.37388732      12.53217108      13.98608572       0.04942457      -0.03866408       0.02995286
Ar       6.69087922      15.78449897       7.36912150      -0.00989462      -0.08583488       0.03777069
Ar       5.29287359      10.07234841      10.76993004       0.00706953      -0.09123610      -0.07540399
Ar      15.62701161       7.53358159      15.72576182       0.03041547       0.03403996       0.02946697
Ar       3.08384420      10.62152822      15.78871309      -0.01783484       0.01213280       0.00905396
Ar      15.04877894      10.29493191      12.39865621       0.08792979       0.01446965       0.07208772
Ar       5.69883060       2.28828772       3.25795415       0.03966985       0.02077291      -0.07020160
Ar       5.51351003       2.46224538       7.25377500      -0.04711147      -0.03577185       0.10398722
Ar       0.18374235      10.31846936       0.22103133       0.03516615      -0.04519932       0.00294154
Ar      15.36495215       1.91236097      12.74842376       0.01222579      -0.01573703      -0.04091671
Ar       1.40557613       1.88008179      11.73269381       0.00991791      -0.06196853       0.00856451
Ar      12.17268191      11.69946295       6.29345101      -0.07800222      -0.07224479       0.03204060
Ar      11.83793370      11.62294987      10.48510463       0.01167575      -0.01250352       0.00982450
Ar      14.30449969       9.30915748       8.66790005      -0.04089729       0.01149580      -0.06975257
Ar      15.87911010      17.26840121       6.49974979       0.01424988      -0.06672662       0.02639725
Ar      13.37069041       6.22367986       3.60431916      -0.10150702       0.06790344       0.00662539
Ar       0.80879071       2.11773186       7.93672309       0.10363871       0.00057239      -0.10921418
Ar       9.63004692      14.98625575       9.11554845      -0.00097145       0.02267779       0.07613624
Ar       1.77659765       3.49877413       3.35519396       0.01761686      -0.10500153      -0.01411536
Ar       8.39131308       0.20235228       4.15781486       0.09548651      -0.11228400      -0.14171955
Ar       5.36446862      14.10569975      17.08784803      -0.00539797      -0.06245259      -0.02545127
Ar      12.90622534       9.18437445       0.36291462      -0.04890180       0.00931481       0.00755953
Ar       4.61140675       4.77405068       0.53527405       0.01134530       0.03833408      -0.00700213
Ar      11.74150202       5.16987809       7.85720366       0.02712028       0.00024340       0.03473169
Ar      13.59235103      13.76203737      12.67885866       0.10508425       0.09685548      -0.07276825
Ar      11.80995394      15.93682588       6.23226154       0.03738451       0.02871911       0.04634192
Ar      11.63914705       5.81706735      16.85731445       0.00707325      -0.00161404      -0.03512566
Ar      17.33855480       7.45805708       9.37498228      -0.04522739      -0.02339282       0.07324959
Ar       7.47231137      11.24184975       2.38452751       0.04102845      -0.07202234       0.01954034
Ar      11.82500594      14.79659027       0.03226124      -0.01129310       0.05443760      -0.00789051
Ar       1.34924822      14.44384283      17.04461317       0.01785961       0.05845298       0.10891074
Ar       6.01208633      14.39035304       3.44177623      -0.02314088      -0.02237930      -0.09940848
Ar      14.65712356      12.22689093      16.04989385      -0.06990650      -0.00438564      -0.04591102
Ar      10.82908955       7.61786139      14.13128342      -0.01359275       0.05303785       0.00395732
Ar       9.83114735       1.78151624       8.12233437      -0.01553963       0.00658110       0.01606295
Ar      16.49945383       6.86314994       2.03333369      -0.05609510      -0.00270508      -0.05445643
Ar       6.66871069       8.22790195       4.41026798      -0.11991757       0.02947519      -0.04102445
Ar       9.32386053      12.82669778      16.67583408      -0.00486447       0.00878439       0.06708290
Ar      17.30525448       5.89669686      13.01614093      -0.05074876      -0.12944016       0.05490464
Ar       0.55813701      16.20991081       3.11722881      -0.09087419      -0.04078956      -0.02274762
Ar       8.08830685       4.75188500       0.96111705       0.06152549       0.01296588      -0.05681421
Ar       6.36949554       1.40605693      17.24241703       0.05262567      -0.06062654      -0.04673159
Ar       8.35931100       5.05293413       6.73718086      -0.00669210       0.04518710      -0.00025162
Ar      10.11869554      14.40378557       3.58511103      -0.10109537       0.04241849      -0.00636863
Ar       2.00484828       6.56999788      16.37379732       0.04533668      -0.03152571       0.00593884
Ar       1.57230053      14.25364308       6.27758845      -0.03768236       0.05088905      -0.01965050
Ar      16.85504311       3.87717878      17.30532215      -0.00744072      -0.01043049      -0.00459215
Ar       1.09317368       6.50775564       5.67941034       0.00614773      -0.03960569       0.08753022
Ar       6.75235812      13.08815826      10.38792435       0.07079141       0.00620444      -0.03912422
Ar      11.09072053      10.94478985       2.88708555       0.00312529      -0.07589382       0.12525795
Ar       3.63856782      11.53431660       2.17085623      -0.04168269      -0.00254751       0.06527799
Ar      14.91911846       0.29726186       3.20214746       0.09808481      -0.06287865      -0.09473889
Ar       0.10309582      16.72471830      13.92932735      -0.00482412      -0.07913145       0.04246517
Ar       6.74549663      16.25990258      14.53281534      -0.07723956       0.06297929      -0.00901510
Ar      13.79183346       4.76476199      14.61525381       0.03110048       0.02503609      -0.04643882
Ar       8.63767655       0.96415410      12.49235317       0.04336148      -0.00419193      -0.03022698
Ar      12.06648454      16.96588411      13.23917928       0.03495762      -0.03479891      -0.07672220
Ar      16.97017970      10.06074929       6.55226175      -0.03463885       0.00381813      -0.06766490
Ar      14.01638009       9.56318343       3.93682892       0.02601931       0.14229340       0.07741764
Ar      11.45792591       8.26839451       6.20321603      -0.01142955      -0.01631870       0.04892043
