108
Lattice="17.35 0.0 0.0 0.0 17.35 0.0 0.0 0.0 17.35" Properties=species:S:1:pos:R:3:momenta:R:3 pbc="T T T"
Ar       3.34888392       0.75525783       5.13730224      -0.08694042       0.05167970       0.03805490
Ar       5.26570778       7.81710327       4.56447328      -0.03826749      -0.00231608       0.04110041
Ar       7.51983290       9.37475287       2.08857801      -0.08188271      -0.01663424      -0.05429421
Ar      15.66257607       6.93433193      10.53766829      -0.05380587       0.03766167       0.05507002
Ar       4.65113779       4.24419879      11.41674470       0.00134841      -0.11295277       0.10387699
Ar       3.30039812       3.77434567       8.12969245       0.02910314      -0.01014664       0.10764952
Ar      14.78804578       6.94897911      16.74181714       0.03948906       0.02277941      -0.03431098
Ar      16.54125921       3.79879152      10.41202834       0.01660750      -0.04230107      -0.03511837
Ar      10.32294841       5.72604941       3.97064142      -0.06075563       0.01169824      -0.04255725
Ar      16.28512531       0.19534859      13.31498793      -0.00652875      -0.00256541      -0.07262586
Ar      13.96825540      11.14250984      11.87701004       0.06726638       0.02338899       0.00735590
Ar      17.14853143       2.18337403       2.35710100       0.00430409      -0.03033822      -0.00906442
Ar      13.17980676       4.42903633       1.61898777       0.01354123       0.00160996       0.04882286
Ar       2.72779209       5.68936344       3.03390131       0.12447843      -0.05727869      -0.03120419
Ar       6.56139795       4.31510837       2.87164820      -0.01661059       0.00260937       0.02400506
Ar       3.34788454       2.37237204       1.45522112      -0.05468462      -0.03690697      -0.07226726
Ar       0.67511816      15.71633018       5.63309254      -0.02523395      -0.03869165      -0.04669870
Ar       9.86773499       2.24727550      17.15039459      -0.08755977       0.06091035       0.07937559
Ar       8.51285228       7.08480898       9.17776890       0.05702280       0.01230843       0.01493025
Ar       1.27805073       9.24406944       1.76720205       0.00866562      -0.03482063      -0.06677652
Ar      14.23721123       7.38369430       6.83813958      -0.03066786       0.09032327       0.02103215
Ar      17.31500592       2.20709077       6.01752733       0.11342031       0.00832125      -0.03731516
Ar       5.82733503       1.55298989      13.33312128       0.01074983      -0.00368476      -0.09311870
Ar       2.00895925      10.20665718       6.70017894       0.12291143       0.01682847       0.01051948
Ar      10.20187504      15.58581133       4.41593051       0.07316565      -0.07542792      -0.09437396
Ar       6.45766819       2.17778361      16.79817901      -0.08060215       0.02181873      -0.02238602
Ar       9.22369213       3.52469089      12.65082671       0.01025046      -0.00571967       0.04216909
Ar      10.61100362       1.73090917       9.84761929       0.01277591      -0.08342331       0.02920279
Ar      13.51054133      15.79509202      11.02729944       0.01578493       0.11607424      -0.02619266
Ar       4.52875633      16.79629184       9.91511458       0.06188689      -0.02462468       0.02315396
Ar       9.56910001       5.75942858       0.68011116      -0.06644365      -0.00731014      -0.00650727
Ar      13.52216118       3.99278108       5.44581247      -0.00582805      -0.00740338      -0.14020951
Ar       9.00387643       9.05154117       6.04277224      -0.02683673       0.09491513      -0.03168377
Ar      11.79155288       4.76741915      15.14180917       0.01867385      -0.08622621       0.07281738
Ar       0.97269693      16.27028822       0.59483949      -0.01213147       0.10823010      -0.00569324
Ar       1.62191663       7.66706712       9.04226086      -0.04233004      -0.06234672      -0.02398252
Ar       0.89417518       5.53399827      17.06590267      -0.00837394       0.04776758       0.14714928
Ar       1.13682936       1.93776663      15.93450858       0.04736902       0.01473546      -0.04779669
Ar       7.33224394       4.99446853       6.48550419      -0.08860666      -0.10119303      -0.07241535
Ar       7.53034834       2.95533772       9.22108787      -0.10826723      -0.06999200       0.06248729
Ar       0.39800090       6.07707309       5.96125856       0.01342275       0.00319139      -0.00352111
Ar      11.84320768       9.63486553       9.41225543       0.02570470       0.00116807      -0.01331971
Ar       1.83009679       1.72666750      10.86101143      -0.08320259      -0.01038438       0.01928319
Ar       6.24646803      12.39946744      17.20211916      -0.01572759      -0.03521390      -0.07028112
Ar       6.09588698       7.21073179      11.81956279      -0.04150715      -0.06432456       0.00803395
Ar       1.66334316       5.84140901      12.40669299       0.04358260      -0.02502515       0.02481962
Ar       4.26446330       9.95989235      10.15088178      -0.03856437      -0.00236143      -0.06426079
Ar       4.89451270       4.95355000      14.98212404       0.04340680      -0.02036144       0.09079349
Ar       0.32269179       9.73383098      15.32945646       0.05742974       0.02460937       0.02429628
Ar       3.00323023      16.27861274      13.20021550      -0.05085512      -0.15799304       0.01773580
Ar      12.41361438       1.52364164      14.17586376      -0.04740111       0.01729639      -0.02713759
Ar      15.25582042       4.34805661      14.34803311      -0.02390714      -0.11540101      -0.04376594
Ar      11.42798489       1.51211253       3.08749313      -0.08002697      -0.06791930      -0.02294966
Ar       7.73036861      10.28844433      10.30528802      -0.00338855      -0.02034040       0.02166030
Ar      16.25846518      10.44746753       4.99321028      -0.02186678      -0.02211324       0.01381080
Ar      15.72236711      10.48799501       8.80060289       0.04833991       0.06347927       0.03351257
Ar       4.38573995      10.80476101       3.12601412      -0.02250883      -0.01408546      -0.10107077
Ar       2.60375721      12.38817376      17.26941955       0.04999235       0.13161676      -0.00848206
Ar      11.42999169      11.99375364       5.55263702      -0.11251779      -0.02689234      -0.04650871
Ar       6.05485396      10.61590085       7.18268915      -0.03754993      -0.03352000       0.16210469
Ar      15.21444787      16.07623334       2.31971281      -0.00250976       0.05274317       0.09710829
Ar       7.81717746      12.88247741       3.99429855       0.00080340      -0.03610868       0.08309049
Ar       8.34058804      16.45251503       0.42234182       0.05426031       0.13344820       0.08805006
Ar      16.16509245       6.65791957       2.66862140       0.04536223      -0.04879714       0.04613712
Ar       4.18889182      14.60901183       6.91172369       0.02460359      -0.05296646      -0.02090616
Ar      10.63465571      15.93515963       8.28272639       0.02027188       0.09066208       0.00866751
Ar       4.28896422      15.96551367      16.78607493      -0.04369360       0.04707927      -0.05989665
Ar       9.95569101      13.03991992      11.37843669      -0.03019266      -0.02294235       0.07354650
Ar      12.88909723      13.41056213       2.71424105       0.02994974      -0.08820678      -0.09474294
Ar       8.58674929       7.46158963      14.80811531      -0.04347156       0.03108842       0.03191213
Ar       6.22824159      17.34966575       3.37208999       0.03910234       0.05785079       0.07577394
Ar       9.21505027       1.47331928       6.10509499       0.04373500       0.02525545      -0.04069405
Ar       8.84290310      13.09064534       7.61163299       0.04814037       0.05505506      -0.01051237
Ar      16.92343418      17.11426144       8.99744658       0.01675759       0.07313163       0.02079098
Ar      15.06319920      13.53800056       5.86749058      -0.03935360      -0.03646073      -0.02819550
Ar       6.60219753      13.72971685      10.36470215       0.07085353       0.11391857      -0.00525816
Ar       9.79430389      12.68817091       0.89609948      -0.02510466      -0.01724702       0.03944127
Ar      14.30461908       1.60165231      17.22700244      -0.00247539      -0.03567983      -0.03802273
Ar      12.49467017       8.68024431       3.78128072      -0.01591186      -0.02424217      -0.14403518
Ar       7.02449792      16.36571044       7.69852513      -0.04139052       0.00548336       0.03270956
Ar       1.37613333      12.38320525       3.50501492      -0.00870947      -0.01464658       0.02918961
Ar      13.84142804      17.07493369       5.78076184      -0.02729784       0.00224021       0.09455942
Ar       9.30461159       0.47071045      14.14537949      -0.01736643       0.02021513       0.04133117
Ar      16.07861063      13.39465387      17.27160697       0.01731432       0.01090934      -0.03711573
Ar      11.50048445       7.03550566      12.25928960       0.02266677       0.04662216       0.02578223
Ar       5.05640423       7.19356706       8.23816194       0.04195728       0.04116084      -0.02374382
Ar      14.99076476       8.36561500      13.74635908       0.04590816       0.04839299       0.01572651
Ar       1.77777412      13.47446259       9.43635525      -0.05756328      -0.01763674      -0.00721565
Ar       4.13254904       8.92327420      14.05976962       0.06946080       0.11659161      -0.03915179
Ar       6.24594370      15.37247482      13.71654591       0.03088599       0.06192201       0.03263779
Ar      13.48370186       3.74412655      11.36960333      -0.06319033      -0.03341321      -0.04314184
Ar      11.63153532       9.12803747       0.31739402       0.12031703      -0.03495677       0.06414888
Ar      13.73056301      15.15571542      14.59073525      -0.03006482       0.09156132      -0.04680517
Ar      16.97457604      13.84339713      13.34065811       0.08233557       0.01640026      -0.10933522
Ar       3.22041344      12.42299500      13.17256776       0.09641226      -0.08858913      -0.05575818
Ar      12.88517389      13.18171277       8.76257266       0.03458328      -0.12748076       0.01322991
Ar      10.79246756      10.84408294      13.92566636       0.04042084       0.01674258      -0.02851674
Ar       4.41120848       7.42890260       0.39878087       0.02970438       0.02235889       0.04644634
Ar      11.98466597      16.20754911       0.91629441      -0.10328052       0.00477373       0.01172266
Ar       4.16225847      14.24090498       2.75173542      -0.04832507      -0.04689131      -0.05362527
Ar      13.74847142       2.11935700       8.33226377      -0.01703854      -0.03221891       0.10285532
Ar       9.74238967      14.13606376      14.83671105      -0.03870404       0.04615977      -0.01632898
Ar      11.63912253       5.42554124       9.10069123      -0.01594899       0.01869063       0.04610187
Ar       6.93873169      11.64539424      13.65750668       0.09623984       0.01305066      -0.00987483
Ar       8.58492751      16.27876913      11.36386434       0.01437607       0.05905011      -0.00281985
Ar      13.79923379      11.39488692      15.74865000      -0.00076806      -0.02182796      -0.04169110
Ar       0.19690989      10.34097996      11.93062292      -0.05966229      -0.02374813      -0.02506291
Ar      15.17110708       9.97651506       1.57722712       0.02628843       0.02472068      -0.01544225
