108
Lattice="17.35 0.0 0.0 0.0 17.35 0.0 0.0 0.0 17.35" Properties=species:S:1:pos:R:3:momenta:R:3 pbc="T T T"
Ar      16.98198815      11.37019747       2.49085017      -0.01669031       0.10042564       0.15159555
Ar       2.18021317      17.18436385      10.32568247       0.03359662       0.15910473      -0.05409729
Ar       2.39007549      13.79794224      10.05971153      -0.03121902      -0.03755585      -0.00303592
Ar      13.54836239       1.28924960       6.31698920       0.04205716      -0.03307341       0.00293408
Ar       3.69801044       1.26977058      14.17108742      -0.07240527       0.05041260      -0.04122317
Ar      12.27325394       9.20112359      12.45310309      -0.04733776       0.11043754       0.02103408
Ar      15.39117185       4.53414472       2.45132827       0.03752432       0.00344626       0.09037456
Ar      13.01600630       1.93895567      10.50609488      -0.05953951       0.10379055       0.00394268
Ar       8.45189328       5.18941452      12.12529554      -0.01965211      -0.03405388       0.00141396
Ar      16.04096158       4.00155214       7.14682792       0.00369309       0.07141629       0.01914466
Ar       2.05939652      12.06486216       5.23760767      -0.07710001       0.01780780      -0.08077539
Ar      17.17882929      14.71467877       7.47325164      -0.03723776       0.03633345      -0.10906874
Ar       3.52919375       9.72398007       8.01566342       0.03454572       0.08359406       0.00204840
Ar       3.09328128       8.54903136       4.27380237       0.00820578       0.05755167       0.04640914
Ar       5.38477344       4.52577474      10.55755607       0.06158829       0.00217182       0.05468761
Ar       8.31910684       6.80667496       1.24770116      -0.05531756       0.00993925      -0.02062119
Ar      12.70887813       1.65071659       2.47225087      -0.14088264       0.04171045       0.02979306
Ar      15.98962155      17.23983826       1.63548079      -0.02932877      -0.01725615       0.04493643
Ar       4.88928816       5.50547365       3.53822239      -0.12435486      -0.06538199       0.03524244
Ar      12.51115254      11.29401298       0.64303425      -0.03163169      -0.02813930       0.01303573
Ar       9.92281238       2.80749481       4.84184940      -0.01680636      -0.04370686       0.04381309
Ar       8.84510907      10.79997866       7.00975432      -0.01938266      -0.00223414      -0.01987818
Ar       6.51449702       8.38460186      11.71639962       0.03124282      -0.01686552       0.06393311
Ar       7.08320318       7.39873911       8.28332184       0.05021235       0.09652101      -0.02476956
Ar       8.37878812       3.67181917      16.08303511      -0.08930623       0.03499828      -0.12611124
Ar       1.64233745       4.71498154      17.07398102       0.05458527       0.01668887      -0.06479258
Ar       9.32196635       0.16798288       2.04902575      -0.11648866      -0.01570609       0.05181974
Ar      13.32077626       7.46360284       2.13592099      -0.00252790      -0.00580542       0.07153082
Ar      13.33389053      15.69865502       9.18898066       0.09073955       0.06215171       0.01692806
Ar      11.24867059      12.92932259      11.29836646      -0.09588775       0.01674064       0.02782793
Ar       3.88531456       1.96579280       7.30171255       0.10408407       0.02916067       0.05654555
Ar      12.13699076      16.50559112       0.09960406       0.00617108       0.06278557       0.12353058
Ar       5.58485049      10.84547487       5.53442549      -0.01414621      -0.08232604      -0.12072797
Ar      11.76070861       5.88412449      11.33295785       0.04401021       0.02554562      -0.01039127
Ar       1.12411431       7.63977394      14.18747845      -0.07471737      -0.02169933       0.00884700
Ar       7.91520436       7.12494697      14.71204902      -0.07116158       0.03435204       0.00734658
Ar       2.98229455       7.53227687      10.82430322       0.08115780      -0.00163716      -0.12928946
Ar      10.95404865       2.71825554      13.58027242       0.01612978      -0.03218545       0.10714047
Ar      10.77026211       0.19941862       7.93776288      -0.00217567       0.02836662      -0.02816185
Ar      16.36000637      15.65458636      11.38334752       0.02913926      -0.03561962       0.04417808
Ar       1.96877466       0.33276205      16.98805002       0.00099739      -0.16668783      -0.07888090
Ar       4.24910508      14.89626717      14.00957153       0.05199776       0.05041343      -0.06619983
Ar       7.78521094      14.99546400      11.88213464      -0.03067238      -0.01146243       0.06438727
Ar       1.07590354       4.89539316       4.58444346      -0.05628210       0.06855586      -0.00111314
Ar      16.45615904      12.19839887       9.48188679      -0.09322558       0.05459694       0.11656683
Ar      14.96543502      14.15028046       2.84644835       0.07118841      -0.02095855      -0.04029097
Ar       8.10749493      11.13751226      10.90741111       0.10827995      -0.07510721      -0.04170439
Ar       4.85349773       5.69668780      14.96382477       0.03093007      -0.04027458      -0.00647157
Ar       0.62592147      12.32653101      13.64469812      -0.05544941      -0.07174753      -0.01052465
Ar       6.06668546      17.29450798       9.52045098      -0.09045438       0.04562041      -0.08192878
Ar       4.65599420      11.40464574      11.87068611      -0.04515833      -0.08131868       0.02482491
Ar      15.77233343       5.59504401      14.85877687       0.08724751       0.01098552      -0.06430279
Ar       5.13833444       9.45536746      14.99666105      -0.04219461      -0.03643090       0.07527239
Ar      15.63558457       8.58791472      11.59039949       0.04550002       0.01689220      -0.08973357
Ar       5.42492248      16.04541801       3.09970229       0.12606809      -0.00889597      -0.05108173
Ar       3.96428604       6.07295310       6.76418017       0.09433705      -0.04550104       0.04468042
Ar       1.31336124      10.35232847      16.45537500      -0.06395158       0.00783481       0.09654594
Ar      13.63188665      16.98830839      13.76887453       0.07361399      -0.05704073      -0.06701137
Ar      16.76800606       1.98467149      14.23118633      -0.08524068       0.00019390      -0.01827016
Ar      12.04385060      12.50707633       4.20841125       0.01196543       0.05114780       0.01072423
Ar      12.94315652      11.66665355       8.31585064      -0.09223893      -0.01028595       0.04550957
Ar      13.82285934       6.75545881       8.18254847       0.03369337       0.06823994      -0.06453468
Ar      16.45499188       1.01195470       9.06173790      -0.05355709      -0.04543513      -0.01451200
Ar      13.03684040       4.87664586       5.01391744       0.12113885      -0.00839664       0.03807738
Ar       2.11841250       4.30496261       9.41742963       0.03134532      -0.17591067       0.04902341
Ar      10.24162315      14.10068464       7.75994227       0.00218347       0.01869048      -0.11207203
Ar       2.75163875       2.08223891       2.96341632      -0.05408568       0.01520094       0.01679086
Ar       7.54005312       0.32238323       5.89122198      -0.06238603       0.04818920      -0.05360014
Ar       5.57242666      13.94998078       0.11396178       0.06339726       0.02729972       0.06512663
Ar      15.40130471       9.96363108      15.12863321      -0.00101021       0.07207503      -0.09223335
Ar       7.03330971       2.78682350       2.49298038      -0.01347488       0.05446952      -0.08995995
Ar      10.34784755       5.10283267       7.83793708       0.00225912       0.04819378      -0.04113331
Ar      14.38996491      12.45341498      12.77015044       0.04317233      -0.05773458       0.02967355
Ar      11.90954866      16.33072449       4.53677848      -0.05323546       0.01025065      -0.02933071
Ar      10.93107914       4.26792210       1.33866073       0.00101299      -0.01680796      -0.01628152
Ar      15.37979977       4.68675017      11.16598453       0.02458752       0.00253075      -0.01076275
Ar       6.65273188      10.49298873       0.73240883       0.00844059      -0.03828039      -0.02072798
Ar      11.19528179      12.91965002      15.11554266       0.04290747      -0.01935085      -0.07630939
Ar       2.21783314      14.04689276      16.80347617       0.04865512      -0.00452773       0.07577897
Ar       8.51461148      14.17204915       4.45186642      -0.05641141      -0.03027551       0.00534070
Ar      15.54707364      13.35266000      16.78472023       0.02306032      -0.06776622       0.04965005
Ar      10.48756874       8.58469541       8.96291396      -0.02970579       0.06762443      -0.07066841
Ar       8.47182869       2.45779202       9.84083618       0.02860115      -0.05336123      -0.05833482
Ar      16.29779203       7.64669005       0.53955781      -0.03112112       0.01877779       0.03874569
Ar       9.65410854      10.05435906       2.51150365      -0.00143646      -0.07775620       0.09790054
Ar       7.71131252      12.32686307      14.83317690       0.01346876      -0.07578183       0.06521242
Ar       1.81048187       4.30614445      13.22262384      -0.05872112      -0.05664610      -0.03166523
Ar       1.17373218      15.05988095       3.05238823       0.04179023      -0.00569381       0.04359206
Ar       9.38900797       6.50588878       4.64039903       0.05856050      -0.02400878      -0.00681444
Ar       6.03524445       0.62867995      17.23127008       0.13080405       0.00609557       0.07986459
Ar       7.08612636       3.85059917       6.59595960       0.04626697       0.00351046      -0.07539267
Ar       9.53875525      13.33322962       1.26698966      -0.01278735       0.04372175       0.01300595
Ar       3.84710528       7.50004935       0.65988249      -0.02367544       0.04164911       0.01099546
Ar       3.62973522      15.92915522       6.66047953       0.08531535      -0.03155988      -0.00032556
Ar      13.60541358       2.72752318      16.30379443       0.04910457      -0.06070653       0.05468900
Ar       0.20404475       8.39682190       7.77214955      -0.00032481      -0.02527282      -0.02231250
Ar       5.66457624      12.51994418       8.66423520      -0.05215383      -0.01733460      -0.03098333
Ar       9.87169558       9.68119169      16.05653171       0.06374758      -0.08808713       0.07284816
Ar       3.70955947      11.58943888       2.26946456       0.01394501      -0.01583419       0.02013887
Ar       0.88576836       1.27410915       5.90446672      -0.06151896      -0.00423012      -0.00353126
Ar      17.05864963      15.79563249      14.80302028       0.09565873      -0.00461077       0.01479698
Ar       8.81351870      15.98034951      15.54501522      -0.16518851      -0.02573337       0.03497083
Ar      11.35028871       6.00872730      15.28363317       0.00810098      -0.07276807      -0.06058996
Ar       7.01123550       0.88190711      13.32726225       0.04148617      -0.01037470      -0.04640201
Ar      10.35253666      17.24185484      11.65478413      -0.03234676       0.05253229      -0.02175490
Ar      16.01236494      11.36528778       5.87806997      -0.00279159       0.05728896      -0.01025776
Ar      15.74373454       7.42019497       4.73071629       0.10009224      -0.00553655       0.05444395
Ar      12.77916123       9.14552192       5.25253089       0.01249332       0.00070556      -0.03826270
