108
Lattice="17.35 0.0 0.0 0.0 17.35 0.0 0.0 0.0 17.35" Properties=species:S:1:pos:R:3:momenta:R:3 pbc="T T T"
Ar       4.45031386      10.86903877       6.65457745       0.09324275      -0.07802851       0.07241382
Ar       4.96150965       7.51481830       7.61090909      -0.08452454      -0.03139424       0.01996725
Ar       7.99443531      12.15284825       6.58684766      -0.01220032      -0.06214757      -0.03666230
Ar       2.68734808       3.86060144       7.90079703      -0.00262183      -0.01788692      -0.16891791
Ar       7.01379284       7.61700729       0.22233457      -0.06535734       0.03645949      -0.09038909
Ar       6.43895499       9.07495307      11.23542456       0.00409779       0.01068806       0.05129202
Ar      16.38807311       3.19979781      14.85429217      -0.01152431       0.11117726      -0.00479223
Ar      15.34319013       3.46456147       8.04768251      -0.00889650       0.00595247      -0.05065105
Ar      10.51848292       5.87846141       5.77156382       0.01024087       0.01324333       0.05322667
Ar      13.52830586       4.38694276       4.77345129       0.03011628      -0.00053898      -0.09508533
Ar       2.25103826      13.62410286       7.91094785      -0.00564936      -0.06911364       0.09834211
Ar      14.41983364      15.64373642      11.88353111       0.09202882      -0.04570610      -0.09380691
Ar       5.57274225       9.60037477       2.91545557      -0.00500182      -0.03334996      -0.06303912
Ar       6.27261685       2.95578929       7.03937619      -0.06141425      -0.01472403       0.06972991
Ar       4.32140545       6.15541254      10.88791472      -0.04786491       0.05499507       0.06576356
Ar       5.55964724       2.30897312       3.00817596      -0.09162886       0.01771954       0.06157330
Ar       1.18182772       3.88747592       2.25942474       0.04345897      -0.07938457      -0.04116578
Ar      10.78790700       5.99723953       1.94460104      -0.04003764      -0.03021147      -0.02318353
Ar       7.61318913       5.62819825      12.15022973       0.08018385       0.05572809       0.00699718
Ar       1.50428147       8.29075770       3.93302244      -0.01667869      -0.04122581      -0.04267152
Ar      13.06237415      15.71782497       4.64801375      -0.03999921      -0.11835647       0.06358868
Ar       6.52945796      15.80362888       7.50055636       0.07740044       0.00296253      -0.05032847
Ar       1.81832012      15.59067412      11.29641690       0.06122445       0.06030973       0.03607539
Ar       3.23801355       7.53651795       1.16302837      -0.01425035      -0.02356563      -0.01644244
Ar      11.96728052       1.84376704       1.60243493      -0.09391092       0.02275800      -0.01705421
Ar       5.92208586       2.64102936      13.55782156       0.00893570      -0.00450810      -0.02401704
Ar       7.95272158       4.16633967       0.35914356       0.01663018      -0.00667433       0.01180697
Ar      10.30062016      15.73277622      13.60668962       0.06803221      -0.07272287      -0.04907584
Ar       0.64119336      11.89512507       5.34423629      -0.03301222       0.03541105      -0.01397913
Ar       5.77346373      16.17755043      11.67039648      -0.03774351       0.04005695      -0.04775319
Ar       4.70017832       5.54296152      15.65318920      -0.05064577      -0.02072203       0.02716773
Ar      12.71484724       0.12584693      15.19255520      -0.01080747       0.01711474      -0.00494281
Ar       7.52345306       8.73005717       5.71151875       0.05089071       0.01512439       0.03915168
Ar      12.60566980       6.62412106       8.65415924       0.08302096      -0.03815458      -0.05173617
Ar      14.14550439       4.61843132       1.26124038      -0.00685156      -0.00220005       0.01691781
Ar      12.58588542       7.50285040      16.77685685      -0.06716099      -0.04642597      -0.07569112
Ar       1.15396469       7.41681361       7.56577948       0.04469190      -0.02551207       0.08043502
Ar      10.21797761       2.02816689      13.09634677       0.02256277       0.01157201       0.07970927
Ar       8.27924094       0.92575100       9.03184617      -0.06181440       0.06485321      -0.09137436
Ar      17.04743287       1.07816301      10.96051851      -0.05212467      -0.05298166      -0.03722957
Ar      16.74593010       5.66568442       5.14219932      -0.00118088      -0.04067591      -0.01846242
Ar      10.54330611      13.17641919       3.53461826      -0.01787694       0.01302237      -0.03984428
Ar       3.36034938       0.12813361       7.25549323      -0.06010605       0.00183109       0.02575696
Ar      10.05546036      12.00602376      13.95961705       0.08429497       0.02947334      -0.01542497
Ar      11.17908465       9.55117197       3.47386095       0.06712197       0.00164892       0.04675225
Ar      -0.00731799       0.62627053      17.07175667      -0.06372508       0.00359068      -0.02276507
Ar       4.58386164       9.10716239      14.13916330       0.10493111       0.02216588      -0.13719145
Ar       1.17647277       6.44009097      15.74221492      -0.04191847      -0.00084951      -0.05401407
Ar       3.13696377      14.61737524      14.71967334      -0.04891447      -0.15863787      -0.03107332
Ar       3.98084817       1.89894354      10.35058258       0.08154608       0.04784084       0.15376021
Ar      13.65364469       3.29219499      11.34736708      -0.06314906      -0.04836220      -0.07876317
Ar       2.15459379       0.87984098      13.81282333      -0.05032570       0.07021521       0.02229699
Ar       7.11035283       6.27579883       3.37195518       0.01030790      -0.07026332       0.11348393
Ar      11.62755034      10.66956904       7.32865589       0.06408412       0.09287018      -0.02812709
Ar       5.85298544      11.39897629      16.83687392      -0.02158767       0.05554592       0.03187398
Ar       3.00709297       9.57528816       9.69304503      -0.02553348       0.06166471       0.08632627
Ar       2.28365720      11.07911893      16.54806065      -0.06610185      -0.03181568      -0.00589916
Ar       4.00644726       0.53171108      17.18972716      -0.02838294       0.04059206      -0.07254777
Ar      15.00080677       9.07606142       6.87854543       0.02336617      -0.01819897      -0.05867862
Ar       8.92842856       7.64433810       8.75960281       0.01975825      -0.07734709      -0.00662092
Ar      12.33769932      12.66590487      10.88499929      -0.03275888      -0.07513590      -0.05326597
Ar       2.31108377       0.02803090       3.27645579       0.03416617       0.03512410      -0.08941526
Ar       3.81159166       4.80443702       4.82289681       0.02155590      -0.05115147       0.12587067
Ar      15.44160556       0.86116509       3.01134809       0.03849760       0.11330095      -0.07869752
Ar      16.22149978       6.26451537      10.46537783       0.11638055      -0.02030219       0.08198713
Ar       5.71824881      13.04761753       9.76464474      -0.04285890       0.02381305      -0.04222834
Ar       3.74974913      13.91773157       1.10798063       0.00261364       0.10256474       0.03294720
Ar       9.78631139      15.93997946       6.81797830       0.00499359       0.08976203       0.03015764
Ar       9.52486919      16.74010707       2.73056366      -0.01885697      -0.00356406      -0.04299330
Ar      13.63824548      13.31193932      15.10648217      -0.03996790      -0.03065283      -0.03083022
Ar       6.14643363      15.93878024       3.39387819       0.05487845       0.14222182       0.07277264
Ar      10.29240373       3.88924876       9.35406746      -0.03140087       0.02910105       0.07321692
Ar      14.30569585       9.67411913      10.27268520       0.00649135       0.01960353       0.06683791
Ar      13.30674548      13.77058775       7.70730700      -0.05926626       0.04505247      -0.10164176
Ar       9.09948607       3.08118487       3.85172460      -0.04985046      -0.00767149       0.05602441
Ar       8.86424650      14.98177257      10.24940749       0.10998421      -0.05460930       0.06809755
Ar       6.85881746      12.62415975       2.74460071      -0.01177496      -0.04312021       0.05752410
Ar      16.89318615      15.33479085      15.12660905       0.02716107       0.03484742      -0.05516632
Ar      17.16580861      11.18757197       1.64114508       0.03583570       0.03369769      -0.02131148
Ar      16.75563960      15.25646354       4.68907162      -0.09253705       0.12066001      -0.00860744
Ar      13.92296092      15.55693380       1.02342152      -0.01202191      -0.02559984      -0.05362795
Ar       0.36067004       2.34228216       5.56870998      -0.00729698       0.02588802       0.04382936
Ar       8.90402619      11.27878555      10.29768218      -0.02129166      -0.02091182       0.14579002
Ar      16.94638980      12.23431704      12.91521133       0.01796559       0.03681276      -0.01158836
Ar       9.47419770      10.26261568       0.64179986      -0.03103746      -0.01314767       0.08171186
Ar       3.19860335      12.14683579      12.12917543      -0.06944886      -0.07628776      -0.05936839
Ar      14.90290235       6.17488855      13.94042559      -0.00264714       0.05250854       0.13377943
Ar       3.14616000      14.00816575       4.69823684      -0.01453363      -0.07001822       0.03190186
Ar       8.22250049       9.14768910      14.80448429       0.07822611      -0.05445748      -0.00350924
Ar       6.86364230      14.96475157      16.05785157       0.00738901       0.05568046      -0.01305104
Ar      12.14599307       3.93868633      15.37418986      -0.04829202      -0.05846260      -0.07585937
Ar      12.93897506      11.11803206       0.85870815       0.05303257      -0.02639379       0.04525183
Ar      16.31626581      15.20182856       8.97925711       0.01919117       0.07064963       0.01016614
Ar      14.56359136       0.29613259       7.12451332      -0.04476678       0.10015459       0.01150843
Ar       2.12669092       4.21517140      12.65058741      -0.00724680       0.08141137      -0.00237852
Ar      11.33567199       1.65573192       7.08418109       0.02628352       0.01428766      -0.05134002
Ar      17.03429374      11.35721794       9.01138094      -0.02048572      -0.08121822       0.09090632
Ar       0.73095394       8.77484625      12.37001243       0.03860266       0.01399681      -0.05390964
Ar      10.34328289      13.80487909      17.30094443       0.03315933       0.02186631      -0.01595655
Ar       0.04621461      14.66182762       1.29690795       0.03946901      -0.06398288      -0.00613689
Ar      11.89223551      16.66179020       9.92005303       0.05602853       0.04371932      -0.08274141
Ar       9.16960517       0.60424793      16.16941962       0.02087454      -0.07269946      -0.03304217
Ar      11.61310147       6.23464157      12.63869273      -0.07524779      -0.01662653       0.10299778
Ar       6.46175015      12.65163594      13.36981491       0.12558747      -0.05370259       0.02969258
Ar      13.16891387      10.07600050      13.53818218       0.09064544       0.00499176      -0.03167610
Ar      14.04868258      12.18764315       4.49011545      -0.03397242      -0.03098539       0.03186879
Ar      16.09922012       9.21490054      15.58069432      -0.03307190      -0.09126376      -0.06911048
Ar      14.49582460       7.84429800       3.47906221      -0.09002506       0.07534835       0.08760562
