108
Lattice="17.35 0.0 0.0 0.0 17.35 0.0 0.0 0.0 17.35" Properties=species:S:1:pos:R:3:momenta:R:3 pbc="T T T"
Ar       1.75411932       9.87794267       6.67815470       0.00439843       0.05032049       0.02659077
Ar       1.73992770      16.07395775       8.59477037      -0.03301563       0.02698056       0.04359148
Ar       3.84545895      11.00174343       9.90272390      -0.07103087      -0.01362620      -0.04764121
Ar      10.32145151       3.83680493       4.37627774       0.05359668       0.08870825      -0.05253785
Ar       5.13991129      14.90424855      15.29467450      -0.01984149      -0.00489618       0.01823036
Ar      13.68630680      10.19099419      13.87515168      -0.11734822      -0.10765437      -0.02436134
Ar       0.98013220      15.93568737       2.67199909      -0.00931533       0.01615705       0.03291469
Ar      14.61849221       5.50995330       9.92327507      -0.08733724      -0.05728137       0.08810027
Ar      14.03167598       3.13946440      12.70416106       0.00032963      -0.03543674       0.05232506
Ar      14.01826211       4.54207642       4.38949438      -0.00552564      -0.00144953      -0.07873758
Ar       4.66000976       7.58936425       9.69057046      -0.01690675       0.00960744       0.01242826
Ar      14.99719175      12.09862899       6.84877013      -0.03312364      -0.02323815      -0.01915402
Ar       2.45455848       2.34891990       7.99296650      -0.00368505      -0.03998352      -0.04159924
Ar       4.03004072       7.27537066       5.47398027      -0.08310752      -0.01143213       0.04477026
Ar       4.18743356       0.26551260      12.22017348      -0.08092742      -0.00429231      -0.06619155
Ar       3.89190172      10.36406852       0.10641539      -0.04157407      -0.01636286      -0.01232417
Ar      14.24808372       5.54723538       0.16077504      -0.06818663       0.03373204      -0.05535040
Ar      17.02559316       1.83416432       0.42218697       0.02415138      -0.05227320       0.00369469
Ar       4.40419613       3.53410370       5.45387264       0.00308667       0.00301204       0.11237454
Ar      12.30631920      11.69121699       3.80245230      -0.01592248       0.03372130       0.02450023
Ar       9.08908214       8.07452577       3.03891695       0.00530812       0.05737036       0.05050258
Ar       7.36367789      10.34520493      10.08669729       0.02798057      -0.04699397      -0.07217031
Ar       6.52679471       3.74270641      10.53330770      -0.04364836      -0.04288754       0.01845898
Ar      11.28361428      11.50722676       9.15836519      -0.04865806      -0.05259508       0.11567181
Ar       5.69927883       8.01269088      14.01364480      -0.01265679       0.00666624       0.08021078
Ar       3.72051308       1.85789914      15.62952996       0.04748018      -0.04230956       0.05790671
Ar      11.61772145      15.90077045      16.21773864      -0.04231253      -0.00340889       0.03739291
Ar       9.14100208      11.76429157       2.55219556       0.04727478      -0.01275750      -0.07212987
Ar      15.78926800      15.68604901       6.67310866       0.02026189      -0.02996959      -0.05995927
Ar      10.28143089      14.91145967      10.17120130       0.06144779       0.08677966       0.07921614
Ar       3.12752013       0.03896164       5.19610802      -0.00497580       0.01472375       0.01799618
Ar      10.72836172       4.79685334       0.62914818       0.04106406      -0.02891084      -0.03356143
Ar       5.87614568      10.52639605       6.97765896       0.01625611      -0.04511446      -0.00172616
Ar      11.83241158       7.97934000      10.56595965      -0.11300001      -0.08857751      -0.02526196
Ar       2.00951478       8.34363711      14.58765788      -0.04126287       0.06207068       0.07766694
Ar       8.38535153      11.42772123      16.06557326       0.09677574       0.12206730      -0.08710271
Ar       3.16187808       5.22032277      11.35883610      -0.02198356       0.00739872      -0.01217830
Ar       9.37898639       6.16886454      13.86531302       0.04174574      -0.00651055      -0.06785759
Ar      11.89630393       1.18401731       9.32558375      -0.04794861      -0.05073065       0.02108581
Ar       0.04682753      14.57655911      11.82687915       0.04758085       0.09363099      -0.01243760
Ar       4.40573039      17.01323672       1.22150291      -0.01684148       0.06279996      -0.03900407
Ar       4.01865135      14.27707280      11.23002489      -0.06098767       0.00613600       0.01170845
Ar       5.87234082      11.73417561      13.19881085       0.04247253      -0.10876691       0.00129440
Ar      16.08193556       1.40501741       4.14789541      -0.01449809      -0.09066656       0.05464257
Ar      16.05445244       9.58681758       9.49665143      -0.13329730      -0.07629436      -0.04090077
Ar      15.68147902      15.57468853      16.90820951      -0.00349017      -0.07597858      -0.02884885
Ar      10.04563247       9.79465122      13.09404671       0.06144215       0.01295761       0.04303329
Ar       8.45559376       7.12063047      10.54264718       0.03500236       0.05699986       0.02718952
Ar       2.16540144      12.66112677      14.46475331      -0.00233189      -0.08051427       0.01139088
Ar       4.09147445      13.62832187       6.95415829      -0.02835442       0.04982515       0.05068227
Ar       7.58275904       6.92672376       6.58901754      -0.04376192      -0.10370433       0.04774160
Ar      15.86851673       8.17205216      15.88122002       0.12249944       0.04239623       0.02132762
Ar       0.72291778       8.93120272       1.12585249       0.03111204      -0.00634675      -0.00395924
Ar      17.35528918      10.64828326      12.71113249       0.11886322      -0.08192591       0.01550316
Ar       6.14068449       3.17551084       0.83451223       0.02910419       0.01180495      -0.01243207
Ar       5.32048216      17.27574576       8.86837804      -0.02253959       0.03986272      -0.00572792
Ar       3.85812455       6.94351828       1.61116011      -0.09522969      -0.04200082      -0.04043241
Ar      16.12006835       0.69958151       9.22540969       0.04124639      -0.00923235      -0.01011362
Ar       0.91717576       2.77944608      11.83966718       0.06551196       0.00134403       0.00352244
Ar       8.09544015      14.78501758       4.79426792       0.05612269       0.17063503      -0.02856560
Ar      14.51409389      12.50990585      11.30779738      -0.02820962       0.03835252       0.05623476
Ar      12.22502384      14.28467173       6.59985883       0.00536002      -0.03440033      -0.05026203
Ar      12.47576700       0.11816098       5.58482690       0.06574612       0.07432213       0.04919177
Ar      14.58083082       8.00042521       2.66371572       0.04038109       0.00053612       0.06405051
Ar      17.13775344       4.16947254       6.58575615      -0.03652187       0.01655336      -0.05413251
Ar       9.15773956      16.85400669       7.23511976       0.06435801      -0.07755889      -0.01573664
Ar       3.10714635       3.21828821       1.65882176       0.05989487      -0.06833895      -0.06524027
Ar       6.59894969       0.59691126       4.40678105      -0.04330146      -0.05976040      -0.01178109
Ar       2.49048363      10.71340068       3.56781557      -0.04821860      -0.02175241       0.14446387
Ar      12.10633007      12.35983998      17.23439377      -0.00668332       0.05028701      -0.05543525
Ar       6.51705628       4.53877978      14.78649756       0.06529341      -0.04914709      -0.05327153
Ar       8.02638625       3.31176689       6.91234708       0.01881735       0.02579570      -0.13254417
Ar      15.70204704      13.13775902      14.72934436       0.09620835       0.07759567      -0.12143828
Ar      11.08791152      15.50992478       2.87897919       0.02440147      -0.04970988      -0.03338106
Ar      12.45062867       8.59098388      17.03335159      -0.01643922       0.10604849       0.01521408
Ar      17.07380080       6.36117101      12.56449301       0.07061599      -0.00538657       0.02889561
Ar       4.64012939      13.89970059       3.23854344      -0.01926390       0.00443440      -0.02400954
Ar      10.47231832       0.75578981      13.59928817       0.04571635      -0.04928860       0.03244222
Ar       2.64922666      13.29750053       0.44688111      -0.06396044      -0.03974553      -0.09390292
Ar       0.74845739      13.30438785       5.29978001      -0.10582763       0.03732579      -0.00173717
Ar      16.09043971      12.26996512       1.00521796      -0.02814250      -0.00452536       0.10265859
Ar      10.67611822       3.95834117      11.51602000       0.06323817      -0.01666365       0.07220979
Ar       8.46542573       0.95062593      10.29856678      -0.00612872       0.04274901       0.07625745
Ar       0.92731518       7.02735570       4.24262442       0.11977147       0.02909676       0.01197766
Ar       9.52503219      12.00258178       6.46542919      -0.04458785      -0.05614297      -0.02927401
Ar      10.76692150      13.12520332      13.92608055       0.00780877       0.02068647       0.08232101
Ar      16.52121476       3.82878141      14.99403531       0.09301248      -0.02006676       0.02279215
Ar      14.42599471      14.46446932       3.47999024       0.04122739       0.08366790      -0.02417565
Ar       7.08333627       7.13964205      17.18833771      -0.02818193       0.04611024       0.04029359
Ar       7.32213446       0.40561046      15.64353122       0.02775092      -0.05610241       0.05919040
Ar       6.65447461       5.43426764       3.60611685      -0.05813329       0.01106794      -0.01497336
Ar       9.08763498       1.17934442       1.64391718      -0.07506326      -0.03119440       0.02325925
Ar       3.09483660       5.31831770      15.88524923      -0.04923596       0.06609757       0.06777237
Ar       0.55155830      12.68895607       9.14844773      -0.11892750       0.00606691       0.07285381
Ar       0.19749050       5.47778583       1.20542477      -0.03148659       0.02765823      -0.00867400
Ar       1.69429704       6.66888539       8.60409594      -0.00899898       0.09616418      -0.08824286
Ar       6.82990300      13.56012308       8.92675453       0.10941641      -0.04813892      -0.10702489
Ar      11.65911561       8.28894317       6.97371277       0.02679533      -0.01444934      -0.06189116
Ar       6.02443604       9.82007923       3.06047838       0.01210338      -0.01888500       0.02847875
Ar      12.91194679       1.55907935       1.68741888       0.04680382       0.03683464      -0.11431477
Ar       0.99430145      17.13058381      14.48884488      -0.03515799      -0.02823402       0.03927430
Ar       8.23258513      15.05763407       0.68580108       0.02023841       0.00358738      -0.03694088
Ar      13.20500196       6.72296524      13.62325472       0.04966162       0.02054199       0.10398989
Ar       7.92987911      14.99055992      13.05480009      -0.01891436       0.10646229      -0.09978274
Ar      14.28092704      16.48579899      13.27890166       0.00950961       0.01590604       0.01956917
Ar      15.45823489       7.72511776       6.25672045      -0.02030115       0.03063769      -0.03909655
Ar      16.50058407      10.57637275       4.07366984       0.02920503       0.01983575      -0.08522690
Ar      11.69766578       4.58653027       7.93866080       0.02086147      -0.01851558      -0.04229930
