108
Lattice="17.35 0.0 0.0 0.0 17.35 0.0 0.0 0.0 17.35" Properties=species:S:1:pos:R:3:momenta:R:3 pbc="T T T"
Ar      16.49488837      10.28326782       3.53343005       0.02137053      -0.08043021       0.07849388
Ar       4.79149819       3.94139479      10.63867566       0.08450051       0.02750989       0.02884257
Ar       8.03957352       0.30617278       5.55849185      -0.00067145       0.09731766       0.00616790
Ar       0.61427208       2.42572109       6.52538618       0.01954115       0.01288148      -0.00388230
Ar       7.89271271       3.49139776      12.87081048       0.01823242      -0.06856671       0.01142075
Ar       8.47739155      11.24051709      13.44475246       0.11969691      -0.06676577       0.04232330
Ar      16.87288019       2.49024765      17.13245840      -0.00018306      -0.08119572       0.03972911
Ar      14.00495807       2.49717733       9.07333560      -0.05997351      -0.11308324      -0.00609263
Ar       9.30317686       8.49748977       8.03665445       0.03169266      -0.02938755       0.03029507
Ar      16.26861867       5.69242379       5.23374400       0.03143872      -0.05722574       0.10007424
Ar       1.32279492      12.51172639      10.49102112      -0.07495464      -0.04400432      -0.03787504
Ar      15.88180163      16.70994694       8.48397025      -0.01109119      -0.09238050      -0.01507333
Ar       5.94489488       8.42738665       5.88107375       0.01899070       0.03800218      -0.08873224
Ar       1.59314245       8.31899717       5.57957990       0.00530337       0.01843001       0.00063365
Ar       6.47581222       6.89998127      12.09964900       0.08620925       0.06476209      -0.06169382
Ar      10.19002674       5.59642942       1.05190915      -0.04811938      -0.00930100       0.04605909
Ar      16.08472671      14.94768980       4.81660549      -0.16267908       0.01152409       0.03911764
Ar      11.69595042       8.79844819       4.26592220       0.05048491       0.01689214       0.03146279
Ar       6.73920721       5.54609685       7.97559071      -0.00023076       0.01741094      -0.07985681
Ar      13.10699773      12.26913725       4.24524895       0.00094841      -0.02779372      -0.02776311
Ar      11.34852954       0.51010661       4.59455827       0.00918005      -0.04302324      -0.02466008
Ar       6.91874733      10.23289076      10.15618459       0.00159177      -0.07895559      -0.08195063
Ar       0.60294539      11.61505921      14.23981754      -0.08773631      -0.00131840       0.08320360
Ar       8.74304520       6.72060031       4.27600708       0.01175722       0.00448184       0.02474861
Ar       9.88457557       3.04784947      15.80302477       0.00754537      -0.01400033      -0.13920739
Ar       4.33522134       4.35248931      14.13698420      -0.01487535      -0.05756279       0.04766286
Ar       6.04048956       1.11426823      16.12929382       0.05745830       0.10364162      -0.08750766
Ar       7.37851261      11.87331894      17.29582080       0.00677172      -0.05366951      -0.06102205
Ar      13.72975827      13.96550868       9.65596241      -0.03103951      -0.06484291      -0.02097887
Ar       7.82103357      14.35581913       9.28310594      -0.04049178       0.06916653       0.03928483
Ar       6.78633717       4.46999286      16.87260707      -0.06168420       0.03117011      -0.11258396
Ar      14.20213949      14.21519238      15.68404039      -0.08571904       0.00827387      -0.06139185
Ar       7.65793004      11.86271652       6.73321234       0.06417579      -0.05425808      -0.03670358
Ar      12.04497583       6.45581036       7.10173832      -0.07829228       0.06871049       0.06956140
Ar      12.59790951       6.19599283      15.38547871       0.06154674       0.10138504       0.06534753
Ar       9.09249441       6.74657978      15.16232624      -0.03719184      -0.02833736       0.09726587
Ar      16.59994787       7.11316752       1.30840465      -0.02574066       0.01850343       0.04589171
Ar      12.31192863       2.89355163      12.37695942       0.01380965       0.06412193      -0.01197573
Ar      11.02734916      17.16567649       8.57764377      -0.00051106      -0.01336297       0.08269314
Ar       2.58505038      17.02433774       9.91643333      -0.09617086       0.08784404      -0.03547099
Ar       1.47685231       3.82538768       2.74317105       0.11216047       0.03887108       0.06795201
Ar       7.59442568      15.37519268       1.09047927       0.05192055       0.02096948       0.01215753
Ar       4.44153646      13.82663251      10.33117246       0.06181176       0.11241473      -0.04155420
Ar       4.63497922       6.62205952       2.45288367       0.00788561      -0.00783581       0.06441067
Ar      14.80527381       8.85650741       6.06478645       0.05597711       0.01608263       0.05437861
Ar      14.31807305      16.55294541       1.73275880       0.02147416       0.03287338       0.07185639
Ar       3.82963951       9.83405574      12.27640109       0.13943163      -0.02746020       0.09983290
Ar       1.96143360       5.12877726      16.90325522       0.06286830       0.07146428       0.01560994
Ar       2.81772627      14.83274577      12.97918205      -0.02755126      -0.09497738      -0.10601384
Ar       7.92217959       1.35174787       9.45260250      -0.05364664      -0.08966149      -0.03571493
Ar       0.30007970       8.46438476      11.47796972      -0.08177111       0.04665661      -0.02256434
Ar       1.89875999       1.10279759      13.67833541       0.01893590       0.02572713      -0.03404299
Ar       4.04330415       4.64896120       5.37061110      -0.05831861      -0.07083197      -0.05883450
Ar      13.31581566       9.40631942       9.56536385      -0.01928339      -0.02903237       0.01535515
Ar       2.57670234      14.49549411       2.43667474      -0.13381644       0.01981128       0.00656165
Ar       2.86033548       6.96032369       9.26902144       0.04385399       0.03675762      -0.00710130
Ar       1.00012359      10.76433680       0.61943859       0.06502614       0.03675702       0.00314718
Ar      16.59542080      14.69691597      11.90520966       0.07484937      -0.09813783       0.03041038
Ar      15.71928486       4.18178519      14.06209627      -0.05213302      -0.01844594      -0.08321199
Ar      12.03160757      11.66644119       7.45759075      -0.01621800      -0.01619274      -0.03637964
Ar      14.95150951      11.10719388      12.48348728      -0.08769271       0.03319505      -0.06474459
Ar       4.75748048       1.85617247       7.78436684      -0.00857079      -0.00711023      -0.01999113
Ar       0.81318771       0.61917114       3.38033056      -0.05189988      -0.05757158      -0.05569313
Ar      14.55704879       2.50059181       4.78950856      -0.07856221      -0.03328854       0.00426074
Ar       1.37461699       4.44976569      12.27685127       0.01998653      -0.02273622      -0.05671127
Ar       9.88766717      14.50603259       6.17560842       0.06044319      -0.01220710       0.04491430
Ar       4.33230892      17.19945934       4.38865437       0.02263819       0.10113938       0.02279327
Ar       9.08024130       3.10091490       3.55378543       0.01972656      -0.03322039      -0.10937489
Ar       4.33618943      15.49776605      15.93405129      -0.02747303       0.01013889       0.00497874
Ar      14.95013322      10.59542491      16.96390563      -0.00458017       0.11619904       0.07695776
Ar       5.02552710       2.69541513       2.38352412       0.03390636      -0.02679117      -0.00077965
Ar      10.56190159       3.30287486       7.14924751       0.03053457      -0.00586921       0.02863537
Ar      11.80811804      10.17817796      13.85405275       0.00346341      -0.02777536       0.04553264
Ar      13.20285700      15.18995693       6.47282119      -0.01217122       0.04597352       0.02810016
Ar      11.76268544       1.90559715       1.32338925      -0.07421067       0.08053411      -0.00941057
Ar      13.65172871      16.80389830      11.75531777       0.03342532       0.03286578      -0.02723329
Ar       5.83732442      13.81716684       4.20991307       0.00223696      -0.02137201      -0.02451540
Ar       5.01856084      12.18744744      14.51517776       0.03635328      -0.08080839      -0.02473816
Ar      17.29626243      15.65653990      15.96531786      -0.03474583       0.06052001      -0.09110001
Ar      11.05164474      14.96278503       2.54380328      -0.06400582      -0.06178406       0.01103127
Ar      16.25433399      13.24420612       1.86018140       0.05571005       0.05609723      -0.03006982
Ar      16.76737023       5.92810506       8.67881933      -0.07161729       0.01007657      -0.00904466
Ar       9.90414140      11.69944952      10.06880115      -0.00174529       0.00230474       0.05133370
Ar      16.45817725       8.14631502      14.77058694       0.02752180      -0.00508292       0.02990403
Ar       9.12723756      11.32930047       3.37296225       0.03464812      -0.01106521       0.08480376
Ar       7.71526244      14.44877806      14.54820769       0.10727292      -0.02874129       0.00333063
Ar      13.79067304       6.27339624      10.97480674      -0.00598201       0.02909257       0.07173095
Ar       1.50291151      12.37191515       5.44769736      -0.12722026       0.00624551      -0.00425109
Ar       8.00840647       8.65142917       1.00905796       0.06213597       0.01192039       0.07994347
Ar       5.35025858       0.37730357      12.60055764      -0.06079416      -0.02535499       0.05650074
Ar       9.28811450       5.05619651      10.18534887       0.00163985       0.03402414      -0.04148394
Ar      10.84587122      12.56234644      16.62998126       0.07893844       0.01091522      -0.05919095
Ar       5.33022842      15.53950302       7.16665885      -0.00059325       0.05077791      -0.05506562
Ar       1.60906387      15.43939647       6.49351928       0.05414066      -0.09278352       0.05984952
Ar      13.34009724       0.91207737      15.29358720       0.00296058      -0.03906916      -0.02742583
Ar      11.87124935       4.87998239       4.00523088      -0.03272163       0.03092622       0.08591015
Ar       3.69439228      11.10186082       8.44181054      -0.02589862       0.05516723      -0.00317398
Ar       4.78998098       8.83148753      16.62580367      -0.03848259       0.05879887       0.04018238
Ar       4.28239254      10.41446414       2.43704151       0.01963620      -0.01150532       0.04816319
Ar       2.94825232       0.77651089       0.35966065      -0.08729348       0.08812829      -0.10128312
Ar      16.51116052       1.33599018      11.59644896       0.02080823       0.01669236       0.00833636
Ar      10.56389617      15.92824963      16.21909828       0.03876416      -0.08894341       0.03976004
Ar       9.84813376       8.14939017      11.73208895       0.01569529      -0.06646831      -0.05576609
Ar       9.75411442       0.30866322      13.16219781       0.04153793       0.06918411      -0.02994534
Ar      11.79156522      13.41781669      12.77893331      -0.07186267       0.09464527       0.02859925
Ar      16.19008564      12.39005055       7.63639741      -0.00266276      -0.08613317      -0.01534957
Ar      14.13843031       4.82199162       0.94148877       0.08879229      -0.11187162      -0.01788846
Ar      11.84119239       8.85162656       0.64507720      -0.02047725       0.06361754      -0.05343397
