108
Lattice="17.35 0.0 0.0 0.0 17.35 0.0 0.0 0.0 17.35" Properties=species:S:1:pos:R:3:momenta:R:3 pbc="T T T"
Ar       1.63727279      10.28585274       5.23913084       0.08224142       0.00940207      -0.05425328
Ar       2.34207799      17.18827928       7.48759057       0.01020625       0.02509382      -0.05339861
Ar       2.78319472      11.83990826       9.45538140      -0.02724802      -0.01226562      -0.01807992
Ar       9.78288787       3.00565045       5.16692583       0.00108397      -0.05089349      -0.00529809
Ar       4.90892612      17.01313224      13.18133028      -0.03704358      -0.09358358      -0.04250386
Ar      15.74206801      13.84890826      15.23755512       0.08178264       0.07561188       0.01567404
Ar       0.49730469      16.03289075       0.75547070      -0.04294504       0.02671816      -0.02086290
Ar      14.01013942       4.55237429      10.75194518      -0.02922887      -0.02218297       0.01064079
Ar      12.62179725       2.69429504      14.24001371      -0.03619302      -0.04686328      -0.01385803
Ar      11.77478990       5.05379770       1.78280065      -0.04592271       0.11126748       0.10292546
Ar       4.00085029       6.43681907       9.12608585      -0.02645706      -0.02833830       0.06080324
Ar      16.38592939      11.23799752       7.66186037      -0.06204139       0.01764770      -0.04088300
Ar       1.09662783       4.48269177      10.49608700      -0.01394195      -0.00344209       0.04050795
Ar       2.79773595       6.44663841       5.41128182      -0.07322234      -0.04075602       0.00687878
Ar       5.25513331       1.15808559       9.57101173      -0.01875433       0.02849527       0.02388772
Ar       4.76878677      12.13153600      15.83043204      -0.00157369      -0.06678378       0.12591792
Ar      14.76639864      17.23912371      15.42112524       0.01477293      -0.05697967       0.12179648
Ar       1.44221163       2.25993389       0.92578315       0.03415493       0.03059958       0.07996430
Ar       2.93574268       3.07386915       7.22421616       0.01668349       0.03710706      -0.10475650
Ar      14.05525267      10.47245473       4.78141457      -0.03718407       0.01676302      -0.01613818
Ar       9.87542806       5.24350303       8.06660383       0.04789593       0.01286225       0.02377090
Ar       7.09742228       9.62369167      10.12994826      -0.07152250       0.12570573      -0.08604436
Ar       7.41372237       5.37716236      10.51462889       0.00992405       0.01272473      -0.07530222
Ar      10.28940757      11.08395162      11.52958255       0.09162373       0.03721227       0.05633859
Ar       6.92141504       7.71894570      17.15258638      -0.01945010      -0.03045991       0.02169260
Ar       2.88670914       4.39975052      15.26071988      -0.04844517      -0.02255341       0.05540592
Ar      11.02463876      13.99710030      17.12816757       0.02853444       0.00377433       0.07988316
Ar       8.69234910      11.15898892       0.94903909       0.02365756      -0.02587438       0.07130850
Ar      13.92552589      15.66932338       8.68755536       0.05908152      -0.10633858       0.03134106
Ar      10.70475184      14.43409483      10.08593216       0.01017672       0.01225233      -0.03816894
Ar       3.85181041      16.28873639       3.24060796      -0.00697993       0.00038952       0.00009626
Ar      11.79190732       1.39176223       0.40404463       0.01172087      -0.04970251       0.07131097
Ar       4.99603396      11.52993120       5.74212143      -0.03730449      -0.04286299       0.00718428
Ar      10.44009721       7.44499510      11.87410341      -0.03482073      -0.00705935       0.05808232
Ar       3.77638016      10.26101770      12.88565432       0.04368884       0.01529521       0.09575959
Ar       9.56024460      14.33280368      13.55007155      -0.04288071       0.10567068       0.03947837
Ar       4.63540967       3.65661436      12.15387234       0.05016105       0.04326558      -0.01454160
Ar      10.02238358       4.69525646      16.28577058      -0.02370072       0.05088308      -0.03069578
Ar      12.24828419       1.48215231       8.17828233      -0.00404709       0.00362006       0.04038349
Ar       1.76971338       0.75886722      11.03414818       0.02990900       0.07463050      -0.03151886
Ar       3.54060697      15.70265563      16.66384118      -0.02425792      -0.06117955       0.10709596
Ar       4.85865307      15.17653416       9.53739312       0.04899588      -0.06510663       0.02524187
Ar       6.00066394      12.84442908      12.03022324       0.06577809      -0.06964142      -0.10456806
Ar       0.75488097       0.77002081       4.30829192       0.07180956       0.04395708      -0.01269021
Ar      17.01605241      12.00768250      12.45673069       0.04573785      -0.06074738       0.00813449
Ar      14.27979719      15.04843400       1.00205211      -0.02173835       0.00466069       0.02254741
Ar       7.29476854      10.28091620      14.05751024       0.12717607      -0.03420176       0.01036320
Ar       7.62059700       5.97789649      14.27096041      -0.03231564       0.01741165       0.08200355
Ar       2.40644527      14.22597101      12.64076104      -0.06930744       0.04770810      -0.01303432
Ar       3.07991199      14.10164146       6.10516273      -0.00711033       0.06127847       0.04621735
Ar       6.90784654       8.81839024       5.97819214      -0.01128054      -0.01748602      -0.01720118
Ar      13.69700918       6.45835886      15.60034995       0.00305364       0.03698917      -0.13820104
Ar       1.99220394       9.37309998       1.71715773      -0.04792613      -0.05435472       0.12318962
Ar       0.04021487       9.09819215      15.78448199      -0.01794831      -0.02113171      -0.05735468
Ar       5.53014888       2.44587381      15.87906037      -0.04426143      -0.03010093       0.01632777
Ar       6.13270926       1.09611604       5.95420424       0.03047584       0.11288913      -0.10783093
Ar       1.75120199       5.90428442       1.86101906      -0.03471467       0.03262015       0.03053498
Ar      16.49586472       1.08379970       8.95001350      -0.03103900       0.03615183      -0.02442998
Ar      16.39920136       4.45812331      13.69334557      -0.01484796      -0.03502889       0.01634378
Ar       6.79806992      14.79170149       4.59559463       0.02516916      -0.04804891      -0.07234164
Ar      14.39352514       0.88896878      11.53088324       0.03667006       0.00974308       0.04459020
Ar      12.01482766      12.60925522       7.12981091       0.02931411       0.00956724       0.01354428
Ar      14.16650910       0.08104391       5.45769380      -0.03634575      -0.01080197      -0.01602031
Ar      11.67215789       8.77193586       1.92523644      -0.05716834       0.12318234      -0.03972485
Ar      16.78247822       5.16191843       7.43751044       0.02145240       0.01678790      -0.09735303
Ar       9.93613840      15.82810340       6.80491997      -0.03491543       0.06139024      -0.07515689
Ar       4.67546181       3.57979791       2.88157198      -0.02735273      -0.01441506       0.08599542
Ar       7.40817636       1.09026934       1.41278076       0.05329254       0.06434944      -0.02429671
Ar       5.58398118      10.45698606       2.52040548      -0.00089235      -0.04240213      -0.18764199
Ar      14.81380813      11.11143112      17.34446041      -0.02406309       0.10959428      -0.01712067
Ar       8.49648631       2.37476031      13.26120688       0.03640518       0.08650629       0.11999134
Ar       6.43235321       5.07544756       5.92703214       0.04481573      -0.02116264      -0.03414288
Ar      16.63106058      15.67284873      12.39840270       0.03033775      -0.06191143      -0.01906831
Ar       8.90058526      12.03752428       4.23095913      -0.07872038      -0.00039632       0.09399095
Ar      10.00461071       8.11084075      15.54051206      -0.01896065      -0.02409720      -0.02270824
Ar       0.46348320       7.35020995      12.66184402      -0.02179327       0.03798399      -0.05770025
Ar       2.89215921      12.96745523       2.40149012       0.01152988       0.01769524      -0.05102845
Ar      11.04413272      17.31857779      12.23571848       0.11516346      -0.11139888       0.01088352
Ar       1.32721081      12.55688177      16.64264806      -0.05817294      -0.04922838      -0.04546986
Ar      17.02124373      15.18035918       5.54417005       0.04105972      -0.00308876       0.01144507
Ar      15.87110521       6.95186616       0.94455244      -0.00732461      -0.00860744      -0.05309243
Ar      10.60427760       3.89354790      11.25373462      -0.04438633      -0.07138425      -0.01891188
Ar       8.56619540       1.58464118       8.57433052       0.12003661      -0.02529819      -0.03190659
Ar      16.13217597       7.84730281       4.29295156      -0.04508839       0.02675464      -0.04523425
Ar      10.19093543       9.72084794       7.65827739      -0.01310345      -0.01875379      -0.07946468
Ar      12.08873712      11.16627487      15.04856118       0.00978751      -0.01889070       0.12817848
Ar      14.92747904       3.12662746       0.09598074      -0.04390199       0.07331407       0.00838271
Ar      13.26762955      14.26339097       4.31132010       0.07997443       0.06062474      -0.11257607
Ar       7.78818674       4.69658669       1.70411059      -0.06041920      -0.06647185      -0.06920164
Ar       8.06170536      16.14872776      15.88160346      -0.01211062       0.00534444       0.02548372
Ar       5.14778488       7.08203658       2.87413953      -0.08051730      -0.09126476       0.05567707
Ar      10.76047143      16.76492389       3.05588629      -0.04187153       0.04116358       0.00534421
Ar       3.21748475       7.97329101      16.13312889       0.06363336      -0.02773835      -0.07573384
Ar      17.23200418      14.44894604       9.24447618       0.01243119      -0.03345221       0.02853625
Ar      17.05814199       4.23168531       3.96767828      -0.01555375      -0.03555024      -0.05521231
Ar       1.05127122       8.55452377       8.17979039       0.04659287       0.08793069       0.06281870
Ar       7.82554480      13.10292786       8.36470286      -0.02523206      -0.03952159       0.04387560
Ar      14.03792442      11.91316977      10.22368806       0.02081905       0.01983335      -0.06526447
Ar       9.72451433       7.01685293       4.44607002       0.01391662      -0.06862777       0.04355885
Ar      15.02927936       0.82387995       2.53481650      -0.05385202      -0.00649364       0.04907315
Ar       1.47644266       1.07889104      14.56778405       0.06809637       0.04760757      -0.00336347
Ar       6.32134159      14.31514177       1.14081456       0.09189218      -0.07636627      -0.01738904
Ar      14.67309291       8.18732572      12.13359852      -0.04595356       0.04013120       0.02586626
Ar       7.78395437      16.54018865      11.14926979       0.02770882       0.01280952       0.00282933
Ar      13.17279148      13.80981063      13.08333025       0.01972067       0.01630890      -0.00445451
Ar      13.34734580       7.69181708       7.86532484      -0.03844531      -0.04500159       0.08395898
Ar      16.55120893      12.41631104       2.81189970      -0.07614809      -0.04103007      -0.03275587
Ar      13.37676047       3.84338369       5.21377627      -0.00019760      -0.02195804      -0.12710716
