108
Lattice="17.35 0.0 0.0 0.0 17.35 0.0 0.0 0.0 17.35" Properties=species:S:1:pos:R:3:momenta:R:3 pbc="T T T"
Ar       0.74774950      14.44957477       7.84790353      -0.04097772      -0.09756264       0.05017523
Ar       8.19325819       9.36462041       4.05417341      -0.00058770       0.04311013       0.04591144
Ar       6.02348335      11.92544814       2.22810571      -0.06454581      -0.00649440       0.05640977
Ar      16.62784602       9.22580245       9.76943394      -0.06971518       0.03654934       0.02129658
Ar       7.42096879       4.04483063      13.63415517      -0.02518725       0.09758941       0.05649852
Ar       3.60193382       4.17259142       9.88679097       0.09668950      -0.03812402      -0.07652700
Ar      17.25751746       4.44026816      16.30124300       0.04815978       0.01621824      -0.06359137
Ar      16.15426991       4.87470049      10.27059522      -0.03772218       0.05978166      -0.06745952
Ar      10.35645131       4.68414685       5.68033714       0.02356452       0.04447392       0.02768615
Ar      14.65035451       1.73723995      10.76076360      -0.03407638      -0.01829276      -0.09002658
Ar      14.01154383      13.44130991       9.95104056      -0.02801094       0.02634281       0.01704971
Ar      13.07817054       1.83994863      16.91661592      -0.05167935      -0.03350937       0.00221706
Ar      11.27234466       7.93154231       4.45100201      -0.05757536      -0.04780659       0.02814761
Ar       6.98007783       3.51801895       7.36762114       0.02410493      -0.02408286       0.00312179
Ar       7.18149619       5.82344342       3.06021939       0.14335469      -0.00189433       0.09088841
Ar       2.78359214       0.66745295       2.52831445       0.07243631       0.02218909       0.00613744
Ar       1.00492641      15.51206304       4.02530032      -0.05505562      -0.07007485       0.12678577
Ar      10.19253611       3.75890460       1.89257353       0.00521724       0.00659240      -0.02472973
Ar       8.66101991       4.93815034      10.45723040       0.04073974       0.06610927       0.00905321
Ar       4.53056091       6.04149425       5.94272629       0.05226626      -0.02981944      -0.01814489
Ar      14.45961134       4.57985730       6.55520975      -0.10784802      -0.11293443       0.09388700
Ar       3.17177077       2.79081411       6.32694679       0.03804171      -0.03203362       0.01798194
Ar       2.89099612       2.01453446      15.71970595      -0.01358865       0.00186535       0.07468972
Ar       4.93531122       9.60208977       5.61806348       0.01827280       0.04565588       0.01693317
Ar       9.21533778      13.63586276       2.50520070      -0.08352918      -0.05626619      -0.00383290
Ar       6.11434222      17.32591331      16.91658192       0.02924223       0.01691295       0.10016450
Ar       9.42006517       2.57058748      16.12787973      -0.05811980      -0.03986794       0.00582790
Ar      10.63396641       2.87795380      12.60237043       0.04002832       0.01341536       0.04256079
Ar      11.49720965      16.11096265      10.71222264       0.04184613      -0.04136636      -0.02701813
Ar       2.82960421      16.27502922      11.31157367      -0.05831794      -0.02965813      -0.03943837
Ar       8.73718503       8.16744928       0.49061909      -0.05701087       0.05341636      -0.09947254
Ar      13.58791317       4.08211643       2.87371702       0.03539839      -0.05620545      -0.02475276
Ar      10.27390648       7.27620179       8.04407347      -0.10109491       0.02011023      -0.00015320
Ar      12.27973620       6.40936828       0.34144031      -0.07116652       0.00066600      -0.02912833
Ar      16.43230847       1.41834632       0.88582343      -0.01482038       0.02169204      -0.00347429
Ar       2.38414107       8.27592736      15.52954464       0.00660286       0.03408658       0.04227036
Ar       1.00920767       3.82309183       3.06532329      -0.00082749      -0.07779662       0.01680751
Ar       3.84489751       4.89532095      13.66506446       0.07822855       0.00054453      -0.08464085
Ar       4.88700428       0.71968014       8.83907687       0.02921647       0.12545099      -0.00421792
Ar       5.28857329       1.38620358      12.44096300      -0.01400336      -0.01775302      -0.02204144
Ar       0.49266570       5.44119318       6.83191302      -0.05604578      -0.01130272      -0.02138822
Ar      12.90025099       9.65593984       8.55866354       0.09611983       0.07619096      -0.05004408
Ar       0.89007913       1.07414670       8.80726098       0.07110400      -0.05252067       0.06252531
Ar       4.99516918      10.96557070      16.28326911       0.05837777      -0.03944885      -0.02520861
Ar       9.79222227       6.31150293      14.92630461      -0.05463198      -0.07080095       0.09459876
Ar       2.42177255       5.96882909       0.88385601      -0.06244538       0.10416073       0.03080118
Ar       5.15488577       8.48958782      12.99133464      -0.01072180      -0.04743548       0.04101902
Ar       6.59108994       3.70055498       0.21886816      -0.04147704      -0.06972672       0.08689310
Ar       2.35278280      12.56750584      14.41436360      -0.00682059      -0.04271226      -0.03493034
Ar       0.80819162       2.93743929      12.65311403       0.01213973      -0.01690740       0.03630250
Ar      11.80922613      17.21617565      14.04075987       0.00858124      -0.03458348      -0.01660020
Ar       1.87505802       6.99226904      11.56204005       0.02499741      -0.05142319       0.02198309
Ar       9.40898531       0.53589010       3.15161784       0.05315829       0.06335287       0.03039451
Ar       8.61079344       8.45097613      11.75893657      -0.03394235      -0.01498063      -0.12705634
Ar       1.45613165       9.17796830       4.32650770       0.08412494       0.00895706      -0.08513375
Ar       2.50053726       8.16528092       8.02643591       0.08598516       0.05740443      -0.02507803
Ar       0.98242001      11.22835240       0.37762496      -0.08184490       0.08860211      -0.02601542
Ar       1.28672171      16.00761944      14.49437193       0.06982830      -0.02451433      -0.06393132
Ar      14.10740798      10.44859256       5.07195311      -0.00996026       0.03531381      -0.00810400
Ar       7.85489660      10.56026506       8.19582156      -0.05265892      -0.03744353      -0.10873908
Ar      13.86307949      15.84335668      16.52692517      -0.00520114      -0.02368251      -0.08706631
Ar       5.56423570      15.54777982       3.09612803      -0.10923184       0.02956620      -0.00956926
Ar       5.88365601       2.20500308       3.14892288      -0.01606728       0.05645690      -0.12477644
Ar      15.75913781       6.69295183       2.69345211       0.09849879       0.01573052       0.07404585
Ar      16.63956439      11.89228910       3.44487891      -0.02653459       0.07467519      -0.00781089
Ar       7.72890935      13.73717566       6.62876536       0.03599814      -0.06377577       0.01040111
Ar       2.56585705      14.65428020       0.42268908       0.05507241      -0.02675773      -0.00878037
Ar      10.66531877      11.92593570       9.71962039       0.03013377      -0.00587643      -0.15170632
Ar      13.20710215      13.42509646       2.84274473      -0.05699075      -0.03621947      -0.07806154
Ar       9.06163368      10.51154021      14.26753059      -0.05076501      -0.03641468       0.03123521
Ar       7.15328774      17.28774946       5.88470885      -0.05429432      -0.00771137       0.03527285
Ar       9.75675032       1.20116913       9.15029548       0.01884705      -0.01489636       0.10035819
Ar      10.76460422      11.47745745       5.58221276       0.11278384      -0.01683678      -0.05439986
Ar      14.30063982      13.55419435       6.21362682      -0.06786161      -0.03374329       0.03684958
Ar      13.11129185      17.26093150       2.85913106      -0.02102324      -0.00971449      -0.04316780
Ar       7.37802781      15.83730004       9.86906671      -0.02920908       0.15817907      -0.02550176
Ar      10.98436830      12.78133230      16.50636354      -0.08646035      -0.01263261       0.01228240
Ar      15.81524443       1.31703518      14.44166960       0.07548049      -0.02564517      -0.05172859
Ar      12.75558400      10.35182768       1.84515886      -0.01689606       0.01121013       0.04378159
Ar       3.56561723      16.05362850       6.38473520      -0.05023446      -0.01865959       0.07563476
Ar      16.21639858      15.04583249       1.20903919       0.03279498      -0.04394633      -0.06216761
Ar      15.82696497       1.45002458       4.44859020      -0.11047723       0.02150974       0.02572249
Ar       8.20995994      17.23531619      13.86642669       0.08484853       0.03136661       0.07763946
Ar      16.48153127      15.92004354      11.23659032       0.08139548       0.01136295      -0.05906169
Ar      12.03105603       7.21276237      11.87642218       0.01542341      -0.04281544       0.08428803
Ar       5.98366936       7.49002337       8.97949677      -0.06290952       0.03777211       0.03018280
Ar      15.91025389       8.06139730      13.00912578      -0.01214177      -0.07007500      -0.02707215
Ar       4.01414285      12.32115468       8.06249105       0.02258707       0.01174965      -0.09068740
Ar       5.85881274       7.16048127      16.03739210      -0.03171719      -0.01019861      -0.03375266
Ar       4.68173281      15.56559738      14.46115749      -0.03697232      -0.10110100      -0.10054638
Ar      13.96581724       5.45260371      14.38068403       0.03889378      -0.03820768      -0.01244982
Ar      12.66669966       8.98037176      15.52420980      -0.01120007       0.07709324       0.01664266
Ar      13.16773332      13.83263547      13.38904352       0.01258359      -0.08141488       0.02497098
Ar      15.09265307      16.30188180       7.87685270       0.05126564       0.06241488       0.01753164
Ar       2.48565738      11.03914361      11.05044579      -0.05051840      -0.01052628       0.02345750
Ar      10.57441008      15.88776576       5.47207998      -0.07970227       0.05951882       0.06073876
Ar      13.03058855      10.59850113      12.25747180       0.01203815       0.11327807      -0.00546612
Ar       4.63362065       8.45751730       2.00580929      -0.05298284       0.06804377       0.02050258
Ar      10.18087049      16.28282925       0.03504566       0.13064109       0.00225974       0.02563764
Ar       3.33298417      12.77148225       4.63726981       0.04810324       0.12550625       0.08097539
Ar      12.52292424       1.08495603       7.40879775       0.01120662      -0.03527456      -0.00496121
Ar       7.63366830      14.04025013      16.40982495       0.00627097       0.03726809      -0.06145993
Ar      12.53776361       4.05315987       9.37776107      -0.02786796      -0.00103000      -0.02878027
Ar       6.63554459      12.03765648      11.74585402      -0.00537743       0.06045450       0.02164570
Ar       9.16561075      14.08748424      12.69329453       0.09869132      -0.12188241       0.06955472
Ar      14.90189446      12.11404476      16.82726697       0.05213989       0.01676320       0.04206593
Ar      16.53807791      12.57950517      12.25175173       0.02275065      -0.02523207       0.02008797
Ar      16.35235855       8.28956650      16.50069853      -0.00762961      -0.00932042      -0.01867129
