108
Lattice="17.35 0.0 0.0 0.0 17.35 0.0 0.0 0.0 17.35" Properties=species:S:1:pos:R:3:momenta:R:3 pbc="T T T"
Ar       0.65750971      10.94549156       4.24236836       0.05253744      -0.01911173      -0.10986628
Ar       6.48670413       8.84456047       6.57576926      -0.01759053      -0.01032257       0.04747677
Ar       5.93399702      12.51903966       4.22236669      -0.02035675       0.03220355      -0.03386556
Ar       0.69500071       5.79468831      10.08118642      -0.16208459       0.04514820      -0.12925950
Ar       8.62959815       6.32373042      14.79579161       0.04957999      -0.01225313      -0.02260660
Ar       5.72455771       8.80451847      10.31101863       0.01136090      -0.06910119       0.02215200
Ar      16.18822022       4.10884219      14.24710494      -0.05609946       0.01723498       0.02415709
Ar      14.49121840       4.52963808       9.93310817       0.01344102      -0.05035438       0.06215435
Ar       8.21041310       5.20554609       5.08935930      -0.01380821       0.01747320       0.15378696
Ar      11.29786149       3.32697986       6.05179733       0.00544738      -0.05060765       0.04142138
Ar       0.60100834      12.48001348       8.12206748       0.14901837      -0.00516527       0.00340068
Ar      13.60004038       0.45204948      15.76551627       0.00437681       0.01251233       0.00749875
Ar       8.45830941       8.47415394       0.71213799      -0.02225756       0.06606593       0.04906158
Ar       5.53670197       2.37475159       6.03993028       0.03479681      -0.05296319       0.04286870
Ar       6.52229211       5.53786331       8.59818755      -0.02675531      -0.00797803       0.02605935
Ar       5.49195207       1.77828451       1.55007588       0.08669495       0.04780846       0.07809109
Ar      17.17739928       3.45966413       2.52840905      -0.08794409       0.01644577      -0.00782581
Ar      11.46481043       3.30482311       1.81914502       0.00546226       0.03324808      -0.00308022
Ar       6.29339323       5.27372187      12.23039920       0.03464898       0.01011591      -0.02028914
Ar      17.14740142       7.80212781       5.50369610       0.03652649       0.02494978      -0.01791592
Ar      12.52736740      16.11460495       6.15297025      -0.04633726       0.03921015      -0.06033402
Ar       6.49892105      15.40351146       7.12792405       0.02726496      -0.05179964       0.01630218
Ar       3.96598592       0.80228390      12.43255741      -0.07208308       0.02636967      -0.03680809
Ar       4.61472022       8.40294441       4.04304995      -0.02886804      -0.05445455       0.00075623
Ar      12.39853836      17.06221948       2.51645017      -0.05204151       0.07641152       0.01276310
Ar       7.26497532      16.50825951      15.69612031      -0.01352612       0.03739504      -0.08174125
Ar       6.12541817       3.47062750      15.05886253       0.02197721      -0.07578304      -0.00878102
Ar      10.49390688      16.85655893      13.26358718       0.02886411      -0.06721906      -0.03271713
Ar      14.43335555      12.50154743       6.19509142       0.01788663       0.00339944      -0.01422590
Ar       3.57597611      14.41811208      10.30547387      -0.01490483      -0.04752785      -0.03488194
Ar       5.36369263       6.56575642       0.01797397       0.02717039      -0.11738172      -0.02540751
Ar      15.88600648      17.26722644       1.85164072      -0.08405677       0.03565124      -0.10553216
Ar       9.20531258       8.87048554       4.59172280       0.10233202       0.05604284      -0.02706202
Ar      11.63991596       6.32429308       4.18316357       0.00278510      -0.01491182       0.07341621
Ar      14.61082585       4.36800059       0.45289129      -0.03802846      -0.11536643      -0.04805881
Ar      15.72204905       7.30177779      16.06623921       0.03587069       0.11565404       0.07410053
Ar       2.73144875       5.92415112       6.97216280      -0.04802315       0.02326740       0.01595334
Ar       9.24520951       3.03424455      13.05141351       0.00575247      -0.07599701       0.13363648
Ar       6.94532166       1.97988495      10.02282757      -0.07222427      -0.07193288       0.04828094
Ar       0.19807283       1.72295290      12.23057587       0.00959939      -0.00207179      -0.08379143
Ar      15.70057312       4.77715805       6.46212745       0.01511893       0.00129286      -0.07035991
Ar      11.09526735      11.39586961       6.15105643       0.08574298       0.01573117      -0.06137441
Ar       3.19449728      17.11241008       7.37150375       0.03593715      -0.04518810      -0.02841962
Ar       6.56478922      11.10259886      15.87670740       0.04412065       0.02970304      -0.04310738
Ar      11.66601191       6.28268452       0.32612539      -0.04821945       0.02521339       0.06661123
Ar       3.00363209       4.10003401      16.67890867      -0.03702976      -0.02810615       0.04254335
Ar       5.55694026       8.40760520      13.78833726      -0.07645059       0.03043926      -0.07530609
Ar       1.48331412       6.82914549       2.04777633       0.05645450      -0.06961347      -0.02272780
Ar       4.37999968      14.56441535      14.06852525      -0.10074149       0.01542885       0.12084470
Ar       2.79986299       2.72536089       9.76685912       0.00331071      -0.06585578       0.06682551
Ar      13.96466254       1.57267756      12.22042809      -0.02635221       0.07462798      -0.01800206
Ar       2.83618406       4.75880944      13.01663524       0.01244255      -0.01913801      -0.02084509
Ar       8.33872958       4.59883686       0.74809428       0.02215533      -0.06954864      -0.01602466
Ar       8.48123934      11.15602178       8.94382659      -0.10278655       0.03309967      -0.19786057
Ar       3.57288803      10.92651721       0.63729759      -0.00920107      -0.01341589       0.09052735
Ar       2.32270051       9.03270871       8.03539878       0.01365033       0.03923612       0.00428425
Ar       1.91121665      12.18079145      15.33256951      -0.01558948       0.02902270      -0.01400550
Ar       2.00001409      16.21065669      16.47945670       0.05962560      -0.00427912      -0.07798492
Ar      14.04453453       9.68023584       4.30756046       0.00294122      -0.02525874      -0.05583730
Ar       9.54640137       8.05883653       8.61799240      -0.02934044       0.05712890       0.10506779
Ar      13.56730049      14.44830826      12.87929799      -0.05944809      -0.08422708       0.03512801
Ar       2.46696369       0.16377675       3.21114787      -0.10998271       0.00642122       0.00157522
Ar       4.33587368       4.83081950       3.56071865      -0.10328026      -0.01942997      -0.01740671
Ar      14.56373065       1.56462765       5.14256181       0.00512130      -0.00713723      -0.04527245
Ar      16.58761928       9.57765008       9.31414611       0.02154507      -0.01731973       0.05105452
Ar       5.25664270      12.06093307       8.06816439      -0.09073103       0.01374855       0.07209909
Ar       4.90496454      14.82125629       0.54769780       0.01311116       0.00685411      -0.08411275
Ar      10.07398529      14.32409199       8.22710913       0.08910181       0.09454187       0.07959967
Ar       9.10249211      15.56908413       4.19020648       0.06474352      -0.00102481       0.02973109
Ar      10.18099623      12.03503395      15.16233935       0.04171012      -0.00411142       0.04970976
Ar       5.88418886      16.57326475       4.01650889       0.03033404       0.01351379       0.05484810
Ar       9.69717803       4.39910701       9.74079315       0.04378214      -0.04110141      -0.09541197
Ar      13.11509580       8.73008601       7.59730203      -0.06203482      -0.02118960       0.04792972
Ar      13.43855186      12.59188282       9.54229473      -0.02847846      -0.01238304      -0.05242742
Ar       8.99590380       1.52367264       3.73133891       0.09688090       0.08538319       0.04659142
Ar       7.13048565      15.73408486      10.77437657      -0.01040108       0.01520007      -0.08483217
Ar       9.49793492      11.72724387       2.36774680      -0.02499937       0.00248443       0.00295813
Ar      16.83218494       1.55143855      16.24651467       0.03678529       0.10686064       0.01042448
Ar       0.14975108      10.30866670       0.24166021      -0.16339560       0.05266944      -0.04387291
Ar      17.04705209      16.45233286       6.18205563       0.04010688      -0.07740977       0.03264971
Ar      16.57547243      14.20326797      16.05995501      -0.03923882       0.01352724       0.03246182
Ar       0.95634969       2.53005459       6.01183817       0.03512651       0.00630018      -0.04819713
Ar      10.30202114      12.72484928      11.72510474      -0.04499730      -0.06971437      -0.03449046
Ar       1.09238074      15.61090690      12.63261250      -0.02377398       0.02774830      -0.03527841
Ar      11.65532582       8.64404115      15.13015809      -0.03046640       0.04339400      -0.00309568
Ar       3.48812185      11.25198512      12.40499991      -0.02439623       0.07379303       0.05557806
Ar      15.84262899       7.21773838      12.32157773       0.01952110      -0.02972812      -0.05018436
Ar       3.15211985      14.34269162       5.21374603       0.04950150      -0.00926435      -0.02393789
Ar       9.22562952       8.99652116      12.14286592      -0.04484294       0.06260168       0.00583336
Ar       8.78693774      14.84574879       0.78043356      -0.04846848       0.03500675      -0.01098115
Ar      12.29981031       3.76811576      15.08477001      -0.01543742      -0.02599808       0.06848652
Ar      12.32016624       9.70394343       1.27383191      -0.03351119      -0.05808597      -0.03052615
Ar      16.05424210      15.24082813      10.27529476      -0.02689340       0.07254344       0.02215296
Ar      15.49764566       0.97878577       8.91854008       0.12184078      -0.03304105      -0.00958170
Ar       2.13474025       8.26388242      11.72840617      -0.01980442      -0.00601035      -0.03075075
Ar       9.19163278       0.46476815       7.41933607       0.04996323       0.06489127      -0.04527188
Ar      16.68186179      11.85391095      12.36163291       0.07635981      -0.02692632       0.00714060
Ar       2.46040662       7.48326979      15.57918373       0.01244489       0.10017502      -0.04435696
Ar      12.97703566      14.47582625      16.92953321       0.06555131       0.05026419       0.11283037
Ar       1.71024290      13.74672878       1.57491671      -0.05044118      -0.06976614       0.07687210
Ar      12.30354371      16.23992592       9.94575234       0.00747085      -0.02067376      -0.00181674
Ar       9.66505000       1.56918406      16.45217654       0.10481942      -0.07795319       0.02062061
Ar      11.57428982       6.18883698      12.27572677       0.04658864      -0.01683189       0.03562117
Ar       6.97282532      11.67633434      12.47697530       0.12235618       0.06560537       0.00661281
Ar      13.05155927       9.99367015      12.31577352      -0.00998179       0.00247621      -0.02825879
Ar      12.64365366      13.23301417       3.02452021      -0.04229010       0.05901220       0.01344292
Ar      14.63336077      11.38874691      15.39251698       0.08929520      -0.06341729       0.07683085
Ar      15.47496850       6.74830102       2.65660269       0.03104011      -0.05709592      -0.05285487
