108
Lattice="17.35 0.0 0.0 0.0 17.35 0.0 0.0 0.0 17.35" Properties=species:S:1:pos:R:3:momenta:R:3 pbc="T T T"
Ar       5.32228802       1.61276314       5.35582630       0.14019468      -0.12027055      -0.11321851
Ar       6.28282749       7.55703237       3.93314583      -0.01975895       0.05187907      -0.08489750
Ar       8.75806303      10.60136701       3.67209014       0.00420253      -0.03210531       0.02613745
Ar      14.47175098       7.29403134      10.20907066       0.00388812      -0.05952111       0.06459439
Ar       2.75149889       4.10387820       9.33491334       0.05930133       0.01727526       0.02361683
Ar       3.03118377       4.72855163       4.53447373       0.02571632      -0.03546504       0.06930314
Ar      13.65613063       7.70296088      17.30971001      -0.05897425       0.06450440      -0.05817055
Ar      16.61249764       4.55952972       9.47565851      -0.03022201       0.03035818      -0.05811891
Ar      10.97658544       4.38431630       4.83936307      -0.00848974       0.04796931      -0.05603933
Ar      16.56198424      16.56898594      14.10328858       0.03063826      -0.01182491      -0.11487793
Ar      12.16672654      11.17945271      11.35083604      -0.01119549       0.02046462       0.11708179
Ar      17.01932656       3.21809531       4.47488659      -0.02567699       0.01629535      -0.02729139
Ar      13.93047083       4.42794237       2.88754089      -0.05113973       0.03839468      -0.01999743
Ar       2.49571566       6.31872667       1.05850289      -0.08337841      -0.05925182       0.04379945
Ar       6.78740458       4.49386895       2.01366529       0.06496955      -0.00899181       0.01305462
Ar       2.49939052       1.60057082       2.80045333       0.02351744       0.04276354       0.02871770
Ar       3.53005788      15.29118886       5.46490954      -0.07684571       0.01295427      -0.12659549
Ar      10.17032219       1.75128373      17.21775748      -0.07727386      -0.01681590      -0.02546108
Ar       7.08423208       6.13964676       9.09818740      -0.02259915       0.00468412       0.00897097
Ar       1.13864968      10.01260455       1.60582538      -0.10211104       0.00645145       0.00473487
Ar      13.27840841       7.27800655       5.92463424      -0.05955782      -0.02399267      -0.03668662
Ar       1.34735517       0.17735651       7.71703295       0.03607044       0.02858976       0.02426874
Ar       5.55616460       1.92952519      13.44263806       0.06205640       0.07931379       0.06332800
Ar       2.98954322       8.29436925       4.27545807      -0.00587640       0.09361569       0.16571865
Ar      12.35942240      15.04999371       5.49392824      -0.02051248      -0.00712005       0.06130634
Ar       7.52020124       3.77110418      15.85393614      -0.04462611      -0.05696476      -0.05432870
Ar       8.15396895       3.77503420      11.91153151      -0.06541556       0.02207207       0.02358656
Ar      11.23993852       1.13725052      11.21494611       0.07672293       0.01876538       0.01410283
Ar      12.81264239      15.47310834      11.78188997       0.03625936      -0.01710873      -0.02595646
Ar       3.95646358      16.64657123       9.83145871      -0.04242559       0.01200403      -0.00721900
Ar      10.75535276       5.03952070       0.77127748      -0.00771156      -0.01936303      -0.00660433
Ar      13.68891178       3.16375109       7.50122504       0.00196094       0.03444556       0.10890679
Ar       8.38136835       8.30042125       6.39431788       0.04124422      -0.04435931      -0.04407459
Ar      10.48533122       4.05384103      14.46560554       0.13374633       0.05572334       0.02182622
Ar       2.01432598      15.73183698      16.51752841       0.01189746       0.00138686      -0.01979979
Ar       1.60110862       8.07527094       9.87670466       0.04190614      -0.01954249      -0.00919930
Ar      17.17538020       5.73540447      16.53388918      -0.06420147       0.04726948      -0.00738112
Ar       0.72565206       2.63100131      15.09653366      -0.02810021      -0.03030038       0.03519044
Ar       7.26529628       4.45682415       6.18740992       0.11893931      -0.01122903      -0.07368019
Ar       6.11108686       2.31567097       9.51645768      -0.00244006       0.03964230      -0.03693754
Ar      16.61279473       6.74306921       6.21605550      -0.03253384      -0.03791373       0.07298916
Ar      11.34451803       9.20645642       8.51893949       0.07602181       0.04735093       0.02882902
Ar       0.76197644       2.05639172      11.47794278      -0.01086378      -0.01874491      -0.00771194
Ar       7.59941093      12.09456059       0.04141354      -0.03678037      -0.07381026      -0.00099124
Ar       6.10807344       7.41682815      12.70080405       0.00765993       0.03828603       0.00892745
Ar      16.70029854       6.60852932      12.65432625      -0.01898746       0.03039943       0.08148534
Ar       4.43786308       9.88660182      10.28728270      -0.04521896       0.01827834      -0.05928007
Ar       3.26641430       4.64359944      13.86699481       0.10729703      -0.04153630       0.02161745
Ar      16.38993466       9.51170818      15.36837534       0.00994409      -0.02133991      -0.05942688
Ar       2.64410957      16.94106090      13.19975386       0.04104280      -0.01385525       0.04896482
Ar      13.44202843       0.65196908      14.16751118       0.04256481      -0.00446152      -0.04994128
Ar      14.76464977       4.13941587      14.40378976      -0.01671467       0.03715516       0.01909819
Ar      12.10663693       1.24191225       4.08947224      -0.07313888       0.01769434       0.08004869
Ar       8.06909457       9.83949655      10.29858657      -0.08452030      -0.09315665      -0.02552480
Ar      16.31999845      10.09715847       4.67958860      -0.08165521      -0.12283927       0.03754190
Ar      15.43351614      10.23472531       8.26497063      -0.05110779      -0.05492039       0.05891873
Ar       5.20065920      10.75965277       2.84984003      -0.08586297       0.02625885      -0.01479918
Ar       3.82943599      12.16997518      16.63833779      -0.03104189      -0.03689775       0.02302263
Ar      13.21608031      11.53079107       5.98530115       0.04347266       0.05274922       0.03041230
Ar       6.59540850      11.87806449       6.40321661      -0.01916353       0.01692854       0.05185474
Ar      16.90945603      16.81605522       2.00379447       0.02456199      -0.03772190       0.02479187
Ar       7.32278114      14.02501175       3.48152027      -0.00419155       0.02115924       0.00323772
Ar       8.20207024      16.26085371      17.16212273      -0.00784300      -0.04828668       0.04316915
Ar      16.34179982       7.13364546       2.60082493      -0.07952520      -0.06855730      -0.01932023
Ar       3.09779994      10.81607256       7.27186119       0.07136275       0.11862912       0.06143353
Ar      11.25025329      16.57644080       8.24472528      -0.05711824       0.03809615       0.06910641
Ar       4.60333253       1.15043370      16.64856359       0.08156941      -0.06190352      -0.06988098
Ar       9.05348078      13.36635273      11.32749604       0.06670534      -0.10052976      -0.03165272
Ar      14.79646609      13.89146685       3.21370259      -0.04754365       0.03266361      -0.05391836
Ar       8.70980483       7.17804500      15.79389551       0.02528879      -0.06488543      -0.12396436
Ar       8.05869200       0.52527884       2.93894523      -0.10535796       0.05852195      -0.02221096
Ar       9.65364646       1.76400420       6.91999679       0.00125541       0.03042176       0.00729661
Ar       9.93381495      12.56872462       7.85373194      -0.07273304       0.09504989      -0.02948022
Ar      17.03125468      15.92400741      10.64273698       0.05056405       0.12135903      -0.00800273
Ar       0.23218999      13.46945092       7.16100688      -0.01119342       0.00079915       0.02316537
Ar       5.75412866      13.56585308       9.24499526       0.01666012       0.03502995      -0.01070607
Ar      11.31391488      12.83122605       2.38132826       0.06824922       0.01503515      -0.06609490
Ar      14.55085506       2.13534519       0.03763348      -0.04076886      -0.02209830      -0.00616466
Ar      11.17527729       8.22723675       3.55308052      -0.00517441      -0.00119097       0.02629802
Ar       7.86746217      16.28391962       7.02779803       0.03913076       0.02807152      -0.05388961
Ar       0.70425254      13.39635565       3.34930533      -0.10769290       0.00611355       0.09046771
Ar      15.14029006       0.15716731       5.67607636       0.00530701       0.06493706      -0.00894239
Ar       9.25437738       0.63326748      14.01527247       0.07698870      -0.00329701      -0.07299158
Ar      16.84692135      12.91459566      17.31596463      -0.04762624      -0.05069411       0.02857267
Ar      10.38765951       7.24700681      12.35626301      -0.11251462      -0.11475042       0.01924051
Ar       3.87350050       6.89035977       7.42936257       0.02880983      -0.09394075       0.00045767
Ar      13.51448212       7.84727237      13.69687290      -0.00893243       0.04165070      -0.02045223
Ar       1.39457239      11.74309014      10.05044661      -0.00657803       0.11614103       0.03977802
Ar       2.53133932       9.29715813      14.75492130       0.02101179       0.08129307       0.04072485
Ar       5.94037769      15.73723969      14.02055046       0.11252130      -0.00805543      -0.06738459
Ar      12.44845902       4.47191702      11.21784566       0.03201061      -0.01959807      -0.03597413
Ar      11.17316089      10.12498669       0.10639124      -0.01703761      -0.07471192       0.01417746
Ar      14.17601340      15.15477486      16.23402611      -0.01218029       0.06737270      -0.06314263
Ar      16.51362071      13.15730664      13.81408125      -0.00599886      -0.03072110      -0.01505015
Ar       2.87046028      13.21555976      12.80548507       0.11026693      -0.00942208       0.00859339
Ar      14.28387240      14.29635950       8.37427660      -0.05064810      -0.00026272       0.01492119
Ar       9.83001326      10.33194407      13.91908291       0.02646602       0.02318029       0.05788253
Ar       5.45959257       8.88017450      16.87518453       0.03624933       0.03452211       0.09692354
Ar      12.03505499      16.50019610       1.28620238       0.03249974      -0.03545569      -0.08467218
Ar       3.90712004      14.68302523       1.97721950       0.07837621      -0.09437102      -0.03690789
Ar      14.61324074       1.15485275      10.59255001       0.01565575       0.07038132      -0.09023069
Ar      10.15862011      14.03135423      15.05235462      -0.03257681      -0.13161256       0.04740750
Ar      10.91239303       5.37799705       8.19679699       0.07008405      -0.02846900      -0.01023801
Ar       6.49200926      11.72208323      13.37710568      -0.12825813       0.00306238       0.02241509
Ar       7.92035534      16.79722698      10.93959801      -0.03147053      -0.07057473      -0.06074851
Ar      13.41242604      11.35691407      14.81127893       0.07613516      -0.00969573       0.09191433
Ar      16.11211965      10.35271114      11.92051670       0.03675464       0.01616930      -0.05992817
Ar      14.84907040      10.51959735       1.59628041       0.04336630       0.08292565       0.03222875
