108
Lattice="17.35 0.0 0.0 0.0 17.35 0.0 0.0 0.0 17.35" Properties=species:S:1:pos:R:3:momenta:R:3 pbc="T T T"
Ar       2.00224163      14.40795251       6.15406991       0.05629652      -0.02594925       0.00549246
Ar       9.33262487      10.41590348       4.08361679      -0.01473114      -0.09964656      -0.00164030
Ar       6.32495864      11.10698059       2.48418516      -0.00525116       0.03525420       0.01514508
Ar      15.17678922       7.60262042       9.80680540       0.07520978      -0.06999581       0.03439767
Ar       7.05759110       2.81369843      14.00442049       0.05011001       0.09262282      -0.04941443
Ar       3.75284863       6.34464119       8.93527048      -0.01203825      -0.03096798       0.03165454
Ar       0.05706279       5.35333288      13.69055874      -0.02832971       0.03167750      -0.06893914
Ar      15.04867290       3.68916867      11.30646700      -0.06054715      -0.11632141       0.07331729
Ar       9.55247843       2.54004907       6.68306617      -0.04238080      -0.05273588       0.02599684
Ar      13.17067071       3.02587345       8.00446005      -0.09987380       0.00545185      -0.09788054
Ar      16.59691804      13.50493422       8.77403274      -0.08116757       0.03277322       0.00142232
Ar      11.50071657       2.93137435       0.55078466      -0.06267651      -0.14881833       0.02130035
Ar      10.87018506       9.15369475       1.00531684       0.04944179      -0.02547675       0.04248483
Ar       4.23988114       2.25308218       9.00985310       0.02544238      -0.07803610      -0.00531593
Ar       7.74401355       5.58658820       7.87049920       0.07257851      -0.00484939      -0.00132658
Ar       4.58966578       0.30172733       1.97498242       0.00931941       0.02704393      -0.04171124
Ar       0.56206009       1.71382836      17.17580124       0.01123514      -0.02503598      -0.05517931
Ar       7.98236277       4.33404431       3.70968471       0.03591416      -0.06330524       0.00685909
Ar       6.84112750       6.33659991      11.65781740      -0.00653805       0.12693788       0.00477081
Ar       2.43455986       6.38334314       4.79564096      -0.05688962       0.01391288       0.01963608
Ar      12.13120933       2.01654877       3.96429074      -0.03057419      -0.01142148      -0.01039392
Ar       4.66394783      16.52851866       7.15743175      -0.00278435      -0.06229334       0.05290572
Ar       3.54164016       2.27113300      15.65032507       0.11246351       0.01726489       0.02354363
Ar       5.52301506       8.05477163       5.97021558      -0.02718360       0.09413274       0.04827137
Ar      10.94478985      15.75767325       4.00895537      -0.01848585       0.02933807      -0.08346108
Ar       6.18872736      16.64188195      14.48367551       0.03004198       0.01808669      -0.01727889
Ar       5.31824859       6.36965029      15.01677672      -0.07120394      -0.09035194      -0.06008787
Ar      11.50004226       2.82617072      14.32029398      -0.01144743      -0.01197409       0.06604414
Ar      12.98837779      13.68003241       9.01503643       0.05207442       0.06036139      -0.06532011
Ar       3.44695049      13.21746730       9.27384556       0.05443301       0.02291520      -0.05403108
Ar       7.25117871       7.77831659       2.79879216       0.03720626      -0.09060675       0.00107224
Ar      14.28764559       0.19090486       1.52933840      -0.05362459      -0.04000008       0.05549716
Ar      10.67748255       6.61878361       4.87839784      -0.00918231      -0.02808521       0.03655935
Ar      13.11557291       5.69323951       1.83131561      -0.01927212      -0.02494121       0.08226981
Ar      15.61309012       4.41443381      17.30610989      -0.04166599       0.05570284      -0.07555613
Ar       0.78037522       9.02522019      15.55184689      -0.06181474      -0.04866573      -0.07157487
Ar       1.44199631       2.72242622       6.69347619       0.14620229      -0.01103935       0.03643058
Ar       3.83383200       4.28466361      12.27573086      -0.02141931       0.01148280      -0.07297205
Ar       5.07273843      15.98148108      10.76214413      -0.13412374       0.03045831       0.03867120
Ar       2.83760476       0.98558453      12.45883851      -0.00329637       0.02721523       0.01722013
Ar      15.34783872       5.80242587       6.49519804      -0.01244768       0.03742337      -0.01425444
Ar      12.08905702       6.38968666       8.35147383      -0.05156137      -0.07349917      -0.03643810
Ar       1.35476804      17.15556421       8.27066204       0.00450378      -0.03546925      -0.05400737
Ar       6.70112879       9.97169931      16.20941524       0.04523212      -0.04995126       0.13619294
Ar       8.64772680       6.13668388      17.25976072       0.04924816       0.03710342      -0.03099224
Ar       2.07204279       5.18386816      16.68469763      -0.02498159      -0.02029377      -0.01119317
Ar       3.87485453       9.49509822      13.86885930       0.02036026      -0.02413304       0.13392231
Ar       2.40499187       3.01194963       2.46834514      -0.04612968       0.05467566       0.03028079
Ar       4.75843478      12.94801356      13.86659175       0.10718772       0.04047356       0.11008247
Ar       0.84695935       4.12049958       9.72753453       0.07190477       0.03879516       0.07350789
Ar      12.51326766       0.68016304      11.43359059      -0.06612785       0.02264184       0.02753144
Ar       1.40103552       7.39180062      11.19240249      -0.03562927      -0.06997204       0.04541735
Ar       5.63868298       4.87268355       1.26562011      -0.07384596       0.00517730       0.02918563
Ar       7.93319339       9.70645512      12.75048722       0.02931072      -0.05139082      -0.12803858
Ar       2.50655171      10.26410070       3.41704207       0.02418873       0.03224521      -0.10293041
Ar       1.17852047       8.79155102       7.94336228      -0.03478308      -0.00711237       0.07539835
Ar       3.04342107      11.70869093      17.16227531      -0.04412462       0.03610756      -0.07747592
Ar       2.76961626      15.79237344      15.99205627      -0.01479351       0.00715442      -0.01746358
Ar      14.63014706       8.73800734       3.88805484      -0.04196382      -0.02446293       0.01829924
Ar       8.49010380       9.15694184       8.29514040      -0.01322734       0.01000793       0.01927781
Ar      13.10837129      16.76370387      15.72505325       0.07263625      -0.01268836      -0.03123839
Ar       5.43157044      14.29640729       4.11707516       0.04385541      -0.05117139       0.04151604
Ar       4.62779632       3.66038755       5.56767621       0.09266857      -0.02440935      -0.00371730
Ar      15.87061832       2.95321318       3.46148451      -0.00127694       0.04087374      -0.04183978
Ar      16.82005666      12.02728309       4.42634959      -0.01319972       0.00255443       0.06462665
Ar       7.67000686      12.45572436       6.93558405       0.03287725       0.02076257       0.01212233
Ar       5.49304617      14.11774802       0.36412546      -0.09455363       0.04413460      -0.06387648
Ar      10.01416256      11.66748432      10.21475621       0.02803610       0.14072188      -0.02932356
Ar      12.64220278      12.35759425       3.09629618      -0.07965078       0.05028498      -0.04108634
Ar      12.23713598      11.46010147      14.67604141      -0.01174340      -0.00448303       0.03065910
Ar       8.48113165      16.23068742       7.02023761       0.07553457      -0.03705428      -0.02673451
Ar       8.87072043       2.34597747       9.90148826       0.01890118       0.13991298      -0.11077340
Ar      13.83150648      10.57858037       8.10840026       0.01016320      -0.08135313      -0.02257026
Ar      14.69383264      14.71195672       5.28080872       0.08835795       0.06323466       0.07303196
Ar       7.02373569       0.92081692       4.85540077      -0.00725863      -0.15801536       0.07998897
Ar       8.37190878      15.86162580      10.56478605      -0.10210569       0.06634260       0.01549149
Ar       9.07997443      12.24791655       0.74167584       0.06328371      -0.04615393       0.00013406
Ar      16.01659570       2.00286871      14.00703036      -0.07402041       0.08654854      -0.02917200
Ar      16.94708364      11.03206973       1.10507556       0.03678201       0.00446137       0.08389729
Ar       0.90086540      17.31893179       3.70478075       0.04492136      -0.01695126      -0.06648798
Ar      16.69860169      15.99315722      16.59495015       0.01336296       0.08232973      -0.07670139
Ar      15.82225965       0.80280016       6.16785207      -0.01441987      -0.04658220      -0.02737461
Ar       9.53397479      17.19515544      13.86619879      -0.00903998       0.04496477      -0.00977894
Ar       1.79836286      14.34726545      12.26040263       0.01527759       0.03090493      -0.02474424
Ar      12.20001233       8.68897007      11.32786631       0.05966858       0.03213897      -0.08678686
Ar       4.96649588       9.25867973       9.53747637       0.00969249      -0.01795451       0.05231430
Ar      15.79703508       8.70913127      13.14519133      -0.07121975      -0.02270751       0.03163009
Ar       4.33333365      11.71789421       6.16356391       0.09227646       0.00554632      -0.01176069
Ar      10.17671475       8.03529960      14.64338788      -0.02862671       0.00161668      -0.05804967
Ar       8.34984908      13.32119589      13.69500552       0.06801121       0.03518133      -0.00598587
Ar      13.59512077       6.06084466      15.06915027       0.02785073      -0.09094849       0.01443050
Ar      14.21674119       9.05452267      17.28997426      -0.03857106      -0.01538838       0.12672645
Ar      15.48293557      15.52541050      12.83121345       0.05089340      -0.00012905      -0.01273636
Ar      15.14131889      16.66260108       9.27682000      -0.04114671       0.04268604      -0.09149029
Ar       1.00313945      10.98797819      11.32616489       0.01879225       0.00442456       0.03570898
Ar      11.27492612      12.87069290       6.32677364      -0.01524800       0.10407743       0.01218988
Ar      14.43614991      12.37344166      11.77074985      -0.06666529      -0.02326428       0.07325477
Ar       4.10712970       8.11841866       0.91506185      -0.03477260       0.04265386      -0.01218454
Ar      10.22833144      15.17891685      16.78877306       0.01936512       0.04197656       0.00966093
Ar       0.98537864      14.16341528       2.03667268       0.02908115      -0.00459666      -0.01273277
Ar      11.40196924      17.10421787       8.36244359      -0.07956697       0.04376703       0.02491661
Ar       8.12965213       1.74070909      17.14596641       0.05408706       0.06339266      -0.03903819
Ar      10.99369269       5.10195590      11.26578046       0.00199127      -0.06830301      -0.04171809
Ar       6.81805699      12.48475605      10.40081756       0.03821136       0.04893726       0.06472853
Ar      11.66185023      14.60236248      12.40284501      -0.01246815      -0.03399159       0.02647927
Ar      13.62730679      13.67110376      17.33580147       0.02800790      -0.00732384       0.00884637
Ar       0.22045513      12.63840099      14.82693429      -0.03936191      -0.05162616       0.02646055
Ar       0.69043304       7.83957262       1.96737910      -0.03345827      -0.00697002      -0.06609427
