108
Lattice="17.35 0.0 0.0 0.0 17.35 0.0 0.0 0.0 17.35" Properties=species:S:1:pos:R:3:momenta:R:3 pbc="T T T"
Ar      16.67150881       9.73100601       3.51721385      -0.00770266       0.00124709       0.01129076
Ar       3.51601763       1.41691071       9.69270858       0.02181681      -0.02649209       0.04430736
Ar       5.49825509      15.39683209       9.55665641      -0.04581726      -0.03925991       0.02718279
Ar      14.82946264       0.08873571       4.42826448       0.02931368      -0.03998247       0.02096096
Ar       7.84960260       2.33981034      14.16387323      -0.00457726      -0.02614064      -0.07432789
Ar      10.88677339       9.19753763      11.15148263       0.00648710       0.05292978       0.04193344
Ar      15.88966250       3.94431047       0.90645105       0.09759097      -0.05921238      -0.00025254
Ar      13.81275588       1.63721171       9.31744921       0.03682947       0.06214957       0.03766605
Ar      10.60196716       7.52983881       7.44598900       0.03684279      -0.03255611       0.00221514
Ar      15.75171252       5.57496310       4.41764498       0.07222850       0.00266610      -0.03405834
Ar       1.45488272      13.90691954       9.34291305      -0.07109672       0.05181613       0.03459159
Ar      15.62937018      15.65509870       7.81596966      -0.00768188      -0.03669984       0.05358199
Ar       4.72410018       7.34240062       7.01927776       0.03247457       0.14271882      -0.09111325
Ar       0.25867328       8.61608968       6.71476699       0.09124513      -0.05928367      -0.00405314
Ar       3.68658013       7.33457986      10.67308008      -0.04131886       0.16696112       0.02094497
Ar       8.63005238       5.67418529       1.65364895       0.10129220      -0.05149632       0.08110433
Ar      12.65332373       2.21645079       2.44818431      -0.08034235      -0.00461950       0.02201106
Ar      13.37687503      11.58849618       1.97926084       0.07408266       0.00068503       0.01102544
Ar       6.19520016       4.58603622       5.29913356      -0.02960988      -0.07901552       0.05447210
Ar      12.39025406      15.46666284       1.76656743      -0.08170669      -0.02980653       0.09681549
Ar      11.79485157       0.86646753       5.93626685      -0.03628093      -0.00512721       0.01496924
Ar       6.75115510      10.44099061      11.26119733      -0.02490012       0.04970420      -0.05609897
Ar       1.00902270      11.16852270      14.37036522      -0.04929897      -0.01732390       0.04250772
Ar       8.09349205       8.15926368       5.07208437       0.02866709       0.02330021       0.01181537
Ar       9.58713881       2.64904028      17.28702029      -0.07122625      -0.10228433      -0.04647829
Ar       4.76419917       3.13284002      16.06998851      -0.04554279       0.02454851       0.00128948
Ar       8.25787045      16.58827751      17.01495510       0.05268952      -0.01533114       0.02784696
Ar      10.58070411       8.99875938       1.67280916      -0.00907152       0.02184939      -0.04356502
Ar      11.99156032      15.13041125       9.18504020      -0.05400305      -0.09754735      -0.06432243
Ar       8.91981043      13.37487547      10.50883174       0.03792278       0.02654224      -0.01695390
Ar       4.63888250       4.16734031      11.61066741       0.03511862      -0.06402455      -0.04688373
Ar      14.49028890      12.58958354      15.98585335      -0.09212849       0.01189048       0.09240082
Ar       8.39415695      10.88458267       7.96053250      -0.02434762       0.00024499      -0.03202300
Ar      12.04158839       5.30323331      10.33787824       0.08516642      -0.00885832       0.03705928
Ar       0.15518084       7.05428454       1.03928595      -0.00788599       0.01181382      -0.02819047
Ar       9.88436403       7.14103496      15.38856586       0.01394959      -0.02123142      -0.08024161
Ar       1.75445428       6.77233166      13.74218405       0.10742708      -0.05997251      -0.11931645
Ar      11.23071081       2.86811792      12.42932207       0.10564884       0.07930983      -0.01564505
Ar      10.02781775       1.04055841       9.00586395      -0.02198850       0.07311884      -0.05073667
Ar       2.38420386      15.73812867      12.57459664      -0.00569372       0.01231460      -0.00663788
Ar       2.66188007       4.63540345       1.65011750       0.04192297      -0.05328918      -0.03770441
Ar       4.86780765      16.64308845      17.27215396      -0.09564367       0.01098106      -0.06228560
Ar       5.66365575      13.45189754      12.26979597       0.03614732       0.05745677       0.01914096
Ar       2.51801722       7.80851068       4.24797421       0.03117410      -0.02566739       0.05424362
Ar       0.26523676       9.90219143      10.10598515       0.05604024      -0.00664184      -0.03360884
Ar      15.89831616      16.93820607      16.23914912      -0.09284324       0.05873350       0.06250768
Ar       4.70371950       9.73868997      14.53707891      -0.03258956      -0.05380008      -0.01143277
Ar       6.41969597       5.92491875      14.12707184       0.04289796       0.01083531      -0.02089275
Ar       4.28214804      13.30083597      15.67819593      -0.03095047       0.13374885       0.02119532
Ar       7.08162250       1.28383027      10.64460986       0.03150722      -0.01468062      -0.01269197
Ar       3.08814976      11.48574367      11.31835214       0.10243915      -0.04465125       0.00768611
Ar       2.91585272       1.77686265      13.06400141       0.03555137      -0.03333344       0.09698991
Ar       5.34971095       6.71485436       0.51068387      -0.03163485       0.02216957      -0.06953003
Ar      14.07051671       8.91393522       8.48436864       0.02132688       0.00591201      -0.05491175
Ar       2.27885749      16.18427350       2.89667886      -0.00526844       0.05715005       0.01424408
Ar       2.41429295       4.57264047       6.45187630      -0.03623807       0.01458323      -0.00314559
Ar       3.02975587       9.69760247       0.41351447       0.08250969      -0.04748547       0.01401726
Ar      16.02726760      15.01134371      12.40024994       0.01422457       0.03102698       0.00417163
Ar       0.62865097       3.86071779      14.91895000       0.02558737       0.00774865      -0.07066810
Ar      11.76243668      11.61687613       7.81596628      -0.11297361      -0.01030146       0.08832546
Ar      14.87918610      12.83646268       9.54491675       0.03914380       0.01452867       0.00208850
Ar      16.61316375       2.13292449       7.17276836       0.06589089       0.00885691       0.13639964
Ar       0.70280300       2.16847171       3.42672806      -0.04375199      -0.04053203       0.05083549
Ar      11.08749152       5.95684343       4.22550536      -0.01289498       0.05148127       0.03336970
Ar       1.00412091       4.31952092       9.99671257      -0.12925427      -0.03746520       0.01863559
Ar       8.77521675      14.95249923       7.38730861      -0.01571233      -0.02840567       0.04091556
Ar       4.00101584       1.83060291       5.37859681       0.02138992      -0.03841919       0.02820350
Ar       7.51681814       1.07381571       6.34724450       0.10272030       0.01179575       0.04279883
Ar       3.46379247      13.07172555       1.77890803       0.01105152       0.10563632       0.05416273
Ar      15.58653425       9.15606400      15.94005626      -0.02894510       0.11964252       0.04592647
Ar       6.16832685       2.37264339       1.97154549      -0.00542672      -0.06909279      -0.00325363
Ar      10.59142592       4.19042667       7.23989769       0.01738262      -0.01075878      -0.05635370
Ar      14.11606123      10.20866774      12.43668427      -0.02315405      -0.03165654       0.01664238
Ar      13.00403572      14.41909705       5.61169586       0.07683856       0.06949105      -0.09925290
Ar       9.46130693       2.98205789       4.00240366       0.04517426      -0.01167347       0.08093323
Ar      13.18991625      17.29917098      12.59944966       0.06014161      -0.04955784      -0.07746221
Ar       7.21759311      13.74332653       2.73544544      -0.07015047      -0.07690367       0.03655589
Ar       9.19812661      10.86050192      14.09632462      -0.00271531       0.00107098      -0.05424179
Ar       1.44992898      15.24314061      16.76925508       0.00230768       0.04631002      -0.07468720
Ar       9.02657819      16.56807600       3.37561054      -0.03919167      -0.09159708      -0.02169155
Ar       0.03668468      12.16217647       0.61731627      -0.03135735      -0.12282717      -0.05211248
Ar      13.74469184       5.73934174       7.05604622      -0.01957515       0.02469696      -0.07438045
Ar       8.27201570       6.72324139      11.12158553      -0.12517386       0.03354870      -0.04164704
Ar      15.60353933       6.99161938      11.15419958      -0.12920843       0.11788805       0.05217119
Ar      10.47219197      11.87401431       4.26783906       0.05537101      -0.03782409      -0.12458135
Ar       7.88245822      13.91931227      14.96939056      -0.06134342      -0.02079294       0.06592668
Ar      14.94586247       3.37869013      12.25140714      -0.02180240       0.01666141       0.11777045
Ar      15.67661671      14.55164774       2.72917158       0.05535006       0.05907537       0.01053371
Ar       5.31448524       9.55807317       3.08285274       0.03202329       0.01630619      -0.02479205
Ar       6.39833526      16.65787134      13.83930794      -0.02868211      -0.01148271      -0.08174611
Ar       7.26497873       4.49718181       8.63195531      -0.01537441      -0.06189445       0.01432004
Ar       9.87862748      12.20138475       0.39674643      -0.04561914      -0.02837007       0.01198621
Ar       4.83296254      15.25012893       5.18503177      -0.11595745       0.00351449       0.00808296
Ar       2.04508699      16.78871234       7.20406982      -0.03351276      -0.09484565      -0.08361871
Ar      13.45409262       2.86365919      15.58099642       0.09958858      -0.08721854      -0.02637516
Ar      12.91248180       9.20104966       4.89057213       0.14433560      -0.04447319      -0.09610660
Ar       4.94242355      11.84332285       7.98071771      -0.02895985       0.03111054       0.05863055
Ar       6.33047099      11.04265637      17.33376424       0.03833595      -0.06511057      -0.04557025
Ar       2.52819046      11.93212112       5.49766612      -0.07015321      -0.03412260       0.05800709
Ar       1.75886032       1.28684180      17.21917545      -0.00239963       0.02516765       0.00795688
Ar      17.20957460       0.69451674      10.49717148      -0.07490109       0.04598958       0.01842560
Ar      11.81457778      16.08426620      15.49985932       0.03703440       0.07037231      -0.03615929
Ar      13.55221192       6.13651502      14.10062529      -0.11251211      -0.06494986      -0.07309682
Ar       9.67455594      16.46657666      12.05350739      -0.03512866      -0.01791079       0.04113901
Ar      11.77612051      13.03963670      13.17128743       0.00006258       0.01834216      -0.01385630
Ar      15.07446175      11.63904239       6.29532590       0.03045210       0.12615744      -0.00174963
Ar      14.09023990       7.81195249       1.95516625       0.00865435       0.08836723       0.01648204
Ar      11.84547086       5.58980956       0.30165152       0.04184958       0.01183308       0.11109133
