108
Lattice="17.35 0.0 0.0 0.0 17.35 0.0 0.0 0.0 17.35" Properties=species:S:1:pos:R:3:momenta:R:3 pbc="T T T"
Ar       0.62367162       9.36088988       7.77486548      -0.03560018       0.02529922      -0.01158980
Ar       6.95126178       4.19261798       7.16700365       0.05609582      -0.03035844      -0.01822328
Ar       8.18415047      14.85345854       7.19863315      -0.06455528       0.04820612      -0.01063207
Ar       2.42820408       3.43059859       8.45518194       0.06118193       0.01167911      -0.01672755
Ar       9.64854707       3.58551807      15.20566386       0.02762911      -0.03941363      -0.08999440
Ar       8.24114653       8.13820367       9.19575255      -0.01807109       0.02537910       0.00339337
Ar      14.93467719       2.67118874       0.67563215      -0.11197710      -0.02022588      -0.00742858
Ar      12.96979018       3.82957221       6.54679705       0.00017483       0.06579944      -0.05642830
Ar       9.83696310       7.40411955       6.38832547       0.03072579       0.02241254       0.08155760
Ar      12.92480404       6.82598779       4.47534582      -0.03775748       0.03850422       0.12387141
Ar       1.57973830      13.30548268      10.73471272      -0.02294688       0.04780127      -0.11253821
Ar      15.35574917      15.01499791      10.26876798       0.04726784       0.02919574       0.00162524
Ar       3.71197342       9.57735777       4.95138388      -0.11040833       0.00289806       0.03491139
Ar       4.75671568       3.22853327       4.32195572       0.00628378      -0.00582650       0.07904761
Ar       5.69556553       5.79235628      11.59462413       0.02349561       0.01348633      -0.05007875
Ar       6.53263499       5.09353692       0.36386714      -0.07699319      -0.01889820      -0.02454147
Ar       0.68983873       1.63702859       2.12115474       0.09536629       0.04032519       0.06129010
Ar       8.61720715       6.99223107       2.81899355       0.03634630       0.14853848      -0.00759266
Ar       8.56950624       3.39324363      11.76047758       0.06293235       0.03969721       0.01923118
Ar      17.23584774      10.72383237       4.13929694       0.06885466      -0.08658648      -0.12826939
Ar      11.73448774      16.98545689       7.14214456      -0.02195162       0.04765704       0.03311779
Ar       4.64576893      14.09895953       8.03747644      -0.03590895       0.03862783       0.04474910
Ar       0.39381899      16.54539142      13.10578018      -0.08029522       0.02910549       0.02414940
Ar       5.85694965       9.17007866       1.85017949      -0.01488472       0.00577941       0.02206828
Ar      11.67911561       3.82731295       1.12386983      -0.08846427       0.00124774       0.03354238
Ar       5.87192664       2.89728056      14.88190556      -0.00274335      -0.02750322       0.00696811
Ar       7.86733239       0.84603319      16.95246022       0.02869713       0.03139709       0.06279458
Ar       9.67064396      15.59263376      15.72340236      -0.11570969      -0.01805734       0.10876224
Ar      15.74545153      13.39151653       6.89296110      -0.04789737      -0.03639990       0.10072111
Ar       8.00221484      15.18182971      10.64477452      -0.01477108      -0.08603735      -0.05440629
Ar       4.92652020       8.11787538      15.43672933       0.01538580       0.02818983      -0.00871108
Ar      13.97541308      15.90119626      14.08564406       0.01559321      -0.03426538      -0.10585020
Ar       7.63990143      10.30237768       6.24598754       0.10063817       0.01471116      -0.08721727
Ar      12.12938500       6.57062782       8.98931680      -0.00264063       0.00877532       0.03182734
Ar      11.55177541       6.19280514      15.47984610       0.01120227      -0.05631513      -0.13604571
Ar       8.42959144       7.89642361      16.63623517      -0.08319164      -0.01554691      -0.07190766
Ar       2.31951432       5.76735366       6.13871490       0.02448645       0.02819515       0.06440641
Ar      10.88481296       0.83946488      12.42609953       0.07001290       0.07205048      -0.01054830
Ar       8.22400189       1.06723645       8.69344512      -0.09997191       0.02699513       0.04898575
Ar      16.98773926       0.98666617       9.99873148      -0.01293285      -0.02062714       0.02165372
Ar      15.93062002       3.65700602       4.42202514      -0.01078615      -0.10603878       0.00255789
Ar       9.75060645      14.85234770       3.86059364      -0.02118128       0.07047210      -0.00254964
Ar       3.88247559      16.53863171      11.09468485       0.08037903       0.01422918      -0.02016893
Ar       6.80752550      11.07944015      16.17829696      -0.02480507      -0.04824572       0.03521864
Ar      14.42126151       9.78217992       6.15038057      -0.00582769      -0.00629133      -0.01230213
Ar      15.67184386      16.50466616       0.35683076      -0.06770952      -0.03453519       0.03106549
Ar       3.69344727       9.79771147      12.42434570      -0.00092355      -0.00809755      -0.04377340
Ar       3.05181345       5.41560676      15.24256338      -0.06746496      -0.01242607       0.10801421
Ar       3.87664248      16.40042732      14.71698345      -0.08912720       0.00282470      -0.04529268
Ar       5.15803352       2.27984337      10.48063525      -0.07490361      -0.05440301      -0.02730416
Ar      15.58728448       3.70715412      11.57791921      -0.02465225       0.03253357       0.07744025
Ar       1.74720446       3.09124568      12.12072240       0.01456220       0.10183454      -0.03399682
Ar       5.46806486       6.60773678       4.81777551      -0.04389337       0.02255623      -0.04933121
Ar      14.33458727      11.17840037       9.74433816       0.05915216      -0.04712949       0.04897271
Ar       2.98934404      11.90787987       2.42772929       0.05935696       0.02500418      -0.07780570
Ar       4.32262719       7.39188202       8.43706560       0.07322089      -0.04672446       0.00817653
Ar       2.12399079       8.87566341       1.24769297       0.13562868       0.01727031       0.02412279
Ar       1.21705956       1.47567176      15.71404944       0.05584069      -0.03424182       0.02097447
Ar      16.29658636       7.18523007       3.65381781       0.06134156      -0.01167924       0.00722427
Ar      11.16998096      10.74808367       7.91133365       0.00701498      -0.06492843      -0.05869081
Ar      14.02319146      12.65569018      13.02649054      -0.11400054      -0.03845405       0.04409163
Ar      16.77691048      15.70280372       4.14059237       0.14781304      -0.01139358      -0.00225746
Ar       2.69267085       4.76965109       1.37105335       0.04739018      -0.05342057      -0.00179546
Ar      13.68400653      16.94881345       3.90372594      -0.07511565       0.03420583       0.06642538
Ar       1.94498885       6.75112069      10.90142160      -0.04540331      -0.07296936      -0.07877046
Ar       7.88626177      11.67675036       9.69791058       0.05511074       0.12271156      -0.05109248
Ar       3.19733034      16.22464818       3.92310892       0.01309547       0.01514914       0.01897451
Ar       7.78493934       0.51233086       4.83223678      -0.01967725       0.01761194       0.00883279
Ar       5.90612030      15.63236341       1.31955946       0.10805238       0.04920695      -0.05214532
Ar      17.33523189      13.11110829      14.26471520       0.01933321      -0.03614905      -0.03830439
Ar       4.95332757       0.06789714       6.45139464       0.02095675       0.05313594      -0.04119539
Ar      10.19280742       3.77990691       8.75466899      -0.00464205       0.00260258      -0.06883921
Ar      13.84439237       7.89362020      12.32579072      -0.06311457      -0.05806176       0.02678768
Ar      12.22528760      13.28376915       5.67660153      -0.01487160       0.04726692      -0.03697966
Ar      10.36390788       0.59409378       2.34981788       0.01630959       0.03769990      -0.06801187
Ar      11.40120934      14.04442279       9.40322450      -0.04689994      -0.07982929       0.07459252
Ar       6.71450004      13.14039857       4.24330239      -0.02072728       0.05257830       0.06846147
Ar       3.16846431      11.64943840      16.03048858      -0.05577142      -0.12668849       0.05308131
Ar       2.21943654      15.32065051       0.60583270      -0.00208004       0.02790546      -0.02100877
Ar      12.37931577      15.40920364       0.91718089      -0.01333027       0.09781071      -0.01198955
Ar      17.06091559      11.62171550       0.62795894      -0.02546395       0.04365729       0.03297945
Ar       1.30569589       1.32775025       5.48452642      -0.00086779      -0.05404655      -0.01560281
Ar      11.09929230      10.43344929      11.51018455      -0.02622695      -0.07684396      -0.04816470
Ar       0.05937031       9.95544828      11.48420731      -0.02104726       0.00502174       0.04600060
Ar      10.83027362      10.30779948       4.46989061       0.04154982      -0.03198039      -0.04772726
Ar       5.21474384      12.98253244      12.49061000       0.09876056       0.02937200       0.05593631
Ar      16.15697402       5.96393599      14.45889586       0.07953729       0.05383816       0.06080672
Ar       1.90637102      13.06451095       5.73918335      -0.00052430      -0.11061958       0.00864799
Ar       7.63348239       9.48125773      12.84413344      -0.01625510       0.11662103       0.05904096
Ar       7.25302167       0.24364288      13.13983905       0.06409074      -0.06452270       0.08756106
Ar      12.25403714       3.94409059      12.67033996      -0.01340404      -0.05305334       0.02748013
Ar      14.21903224      13.05767076      16.57908693      -0.01115426       0.01799692      -0.06423450
Ar       1.40113751      15.92143094       8.36255017       0.03030353      -0.02371374      -0.03629235
Ar      15.49741067       1.03875607       6.77209934       0.08507520       0.09739910       0.01226739
Ar      15.31853746       1.76545700      14.37699748      -0.11598847       0.02152440      -0.00634815
Ar       9.74137828       3.89947616       5.05254770      -0.01522505       0.00355450      -0.03783523
Ar      16.51822006       5.60405472       8.72597460      -0.09619318      -0.01532553      -0.04483672
Ar       0.81262771       9.09439146      15.02979922       0.07995433      -0.03713360      -0.03395904
Ar       8.53136905      13.45984544       0.95823149      -0.08021755      -0.07554470       0.04146841
Ar       4.31304119       1.54971122       1.40419890       0.01278191      -0.05075390       0.01781238
Ar      13.00201244       1.72114251       9.82850251       0.09001129      -0.00957622       0.05894396
Ar      12.01379524       1.23483659      15.89336031       0.01704316      -0.09169851      -0.08175464
Ar      10.26973356       7.13739037      12.07077197       0.07168402      -0.02000131      -0.00278796
Ar       8.69547845      12.88845158      13.73570275       0.11146195      -0.02011460       0.03349587
Ar      12.54172337      10.03789154      14.75411700      -0.01913870      -0.07373266      -0.03377538
Ar      14.23435506      13.05123626       2.78801728      -0.01034767       0.14032043       0.04700614
Ar      14.77651324       8.49825899      17.21554028      -0.06040558      -0.00644787      -0.04582103
Ar      11.19158516      11.22564481       0.55177493      -0.02014132      -0.00299142       0.02834020
