108
Lattice="17.35 0.0 0.0 0.0 17.35 0.0 0.0 0.0 17.35" Properties=species:S:1:pos:R:3:momenta:R:3 pbc="T T T"
Ar      16.51556679       9.49164475       2.78399935      -0.09363225       0.08417348      -0.02386739
Ar       4.41288597       3.64365658      10.25110361      -0.03680784       0.07181733       0.01191499
Ar       7.50869724       1.42640035       7.40052585       0.03471324       0.01774063       0.07930780
Ar       0.42897017       2.28220168       4.10335992      -0.08079705      -0.02375038       0.01096682
Ar       7.49637680       2.72249074      13.58383009       0.01060342      -0.06111116       0.00510976
Ar       8.77123395      11.02049914      13.88380694       0.00346027       0.05114333       0.04650273
Ar      15.52634079       1.65701601       1.18463289       0.08506116       0.04240425       0.04242121
Ar      13.84746020       1.24731987       8.11388130       0.03889231      -0.01812368       0.00583292
Ar       7.05017844       8.01728123       8.04350241      -0.02348503      -0.14420519       0.01905164
Ar       0.11163632       6.24477308       5.27911170       0.05797431      -0.01196002      -0.07490521
Ar       1.12266661      12.60253260       9.35254715       0.03239684      -0.06303283       0.00285758
Ar      15.74331136      14.59434852       7.34270692       0.02269015       0.03327933       0.01824117
Ar       4.20858423       8.58325080       6.08566379       0.00888444       0.04298275      -0.02813024
Ar       0.89687337      10.11054308       6.21140459      -0.03547956       0.05850805      -0.05816861
Ar       5.03368918       6.99689491      10.83796551      -0.08880844      -0.02081818       0.02466486
Ar       9.44978220       6.71999939       1.85469394      -0.00769196       0.03644702       0.06790304
Ar      15.19643016      16.78833431       4.32480245      -0.10116884       0.05929258      -0.03323626
Ar      12.63904695       8.58032403       5.38336852      -0.02953641       0.05436340       0.08669622
Ar       6.00406891       4.48596885       6.75387387      -0.03968160      -0.05744762      -0.07085125
Ar      13.62281579      11.40833462       3.39176319       0.03513090       0.05528836      -0.01685841
Ar      11.15217044       0.65494192       5.27312702      -0.01790232       0.05789143      -0.03120676
Ar       6.04353817      10.31929259      10.94353943       0.10881398       0.02333139      -0.01606501
Ar       0.77386574      12.21032168      14.70322132       0.14834799      -0.01973301      -0.05439275
Ar       8.34103808       8.19425686       5.06553091       0.08048080       0.09589284      -0.04642305
Ar       9.82933015       4.16407292      15.87500924      -0.10693836      -0.06856540       0.12640058
Ar       3.84268921       4.81655533      13.73034820       0.02425320       0.04952823       0.01739283
Ar       8.60681221       0.47730995      17.07526130       0.00858322       0.03406298      -0.05248873
Ar       8.86165849      10.16015608       1.42415255      -0.06329789      -0.10929940       0.05771941
Ar      12.11088481      14.93166783       9.39945211      -0.03761277       0.03778824      -0.02378321
Ar       8.66147378      12.95471092      10.80794926       0.04145444      -0.09742793      -0.03878645
Ar       7.03576962       6.31440993      14.05111389      -0.02099025       0.03387201       0.05497580
Ar      15.35749761      14.30793981      14.89776740       0.04411237      -0.02509446      -0.02492019
Ar       6.41785436      11.23240331       6.55496135       0.00006053      -0.03574856       0.02737037
Ar      12.51271725       4.36905775       9.81781500       0.06955113      -0.03815300      -0.02177474
Ar      14.45630170       5.91754649      15.75854808       0.04020667      -0.07875067      -0.05079056
Ar       9.59651703       8.12568931      16.07579207       0.03521093      -0.00969473      -0.05360552
Ar       0.90294268       6.16796919      15.49216785       0.06398862      -0.05757962      -0.01346764
Ar      11.26919828       2.82688267      12.57884946      -0.08583298       0.03284943      -0.00390744
Ar      10.14543709       0.65958517       9.71663129       0.00503099      -0.01199927      -0.12361788
Ar       3.29602015      17.28897444       9.08630021       0.04905389       0.01817211      -0.04199430
Ar       1.12248831       4.53870704       1.26657641       0.02982091      -0.02404823       0.06549648
Ar       5.97600723      16.08518780       1.34519042      -0.06287065       0.01622445       0.12022461
Ar       5.64191393      14.12754783       8.72200501       0.02146695      -0.06182282       0.04178878
Ar       2.27160979       7.68707057       2.83893990       0.03443640      -0.00854741       0.00462592
Ar      16.00322400       7.91919612       7.93925338      -0.01549803       0.07906431       0.02438647
Ar      13.77223847      15.00961897       1.25368538       0.05707755      -0.00003299      -0.07400617
Ar       2.70589003       8.60225980      13.58871186       0.09963255       0.02671763      -0.03990205
Ar       4.01190476       7.27211584      16.99706008       0.06734275       0.04399437      -0.00630620
Ar       3.77620414      14.90261904      12.15739720      -0.00279536       0.01746833       0.04539360
Ar       6.54207471       0.54144138      10.94350981      -0.04186444       0.06754606       0.11241565
Ar       1.28069447       8.91355272      10.13553453      -0.07259215       0.07042542       0.01724894
Ar       3.81928209       0.85912811      13.25106531      -0.11269215       0.00078038       0.01683645
Ar       4.37075322       5.06061894       3.46063342       0.09007119       0.03638803       0.03770864
Ar      13.61802963       8.80710613      10.52597567       0.00747719       0.06138152      -0.04415319
Ar       3.26682314      14.69630700       3.18416637       0.01527052       0.04824666      -0.00628774
Ar       2.63527086       6.52486393       8.25429335      -0.14664292       0.09968409      -0.00882740
Ar       1.46496173       9.83424896      17.14332811       0.07587256       0.03573691       0.11695616
Ar      16.88907289      15.26003894      11.57250962       0.04301777      -0.16954945       0.04344276
Ar       1.03576158       2.53459486      15.32663361       0.07824792      -0.02154210      -0.09131023
Ar      10.56679358      11.99260527       8.06737043       0.04781714      -0.07129563       0.02909331
Ar      14.53460783      12.27341450      10.81754373      -0.00032989       0.05663084       0.02576438
Ar       2.05694378       2.86941038       7.38510005      -0.04681692      -0.01145348       0.10610801
Ar       1.03569537      16.94801058       1.47152281      -0.07897847       0.07051252      -0.07174991
Ar      14.15094372       2.68114162       4.54884163       0.04702373       0.06632754       0.10156296
Ar       0.88606394       5.72822160      11.64641018      -0.08222022      -0.06348406      -0.06737916
Ar       8.56117414      15.33319668       7.84216733       0.07372499       0.06501163       0.03117145
Ar       3.91807846       1.02208418       3.56218146      -0.06558719      -0.03227097      -0.06465810
Ar       7.36098768       2.42342555       3.94706055      -0.05730200      -0.01764470       0.01435537
Ar       3.52513686      14.09082738      16.81935600       0.03748687      -0.08181315       0.03750798
Ar      15.33209440      10.99562466      16.79429888       0.01328358      -0.03188603      -0.07658938
Ar       5.91673754       3.54713235      17.09995606       0.01863029       0.11433146      -0.13018224
Ar      10.42329798       3.69751699       6.93258666      -0.01656616      -0.04396853      -0.05705125
Ar      12.73929620       9.97649117      14.71195912      -0.07532929       0.00539668      -0.07416384
Ar      12.64389048      14.23259196       5.66644038      -0.02940350       0.03573073       0.03708268
Ar      11.12046968       3.48824543       2.55581907      -0.00592561       0.02971457      -0.00767268
Ar      13.25423512      17.10190171      12.66197069       0.02004167       0.00579619       0.03463488
Ar       6.97338943      13.15232818       3.29807043       0.01384319       0.01414144      -0.02527995
Ar       4.77079455      12.02559324      14.08272088      -0.03937998       0.02161241       0.06197407
Ar       1.01607909      16.11157292      14.96724230      -0.07310696      -0.04431039      -0.06378440
Ar       9.98868625      15.29982380       2.37185569      -0.03379402       0.01573135       0.08197865
Ar       0.22634401      13.49168690       0.76243504       0.03664418      -0.03706697       0.01435751
Ar      16.42366687       4.43290032       8.72311178       0.05224161      -0.19714093       0.00708738
Ar       9.56306157       9.01160178      10.47935542       0.03613619      -0.13212667       0.03284577
Ar      16.49615917       9.11985355      13.97639580      -0.01694942       0.00736975      -0.05762600
Ar      10.12235370      11.60630532       4.74080470      -0.06087006       0.07329615      -0.00988972
Ar       8.43910503      13.81732981      16.23807003      -0.02003878      -0.02084357      -0.02167527
Ar      14.88293998       4.62914093      12.59549745      -0.05790355       0.03166403      -0.04130036
Ar       0.09561111      13.20514374       4.32247409      -0.03947216       0.01087328      -0.12372040
Ar       5.87400989       8.96327657       2.95181482      -0.12143066       0.09324107       0.05593436
Ar       5.90382442      15.70137922      14.80805868      -0.07627770       0.02462802      -0.01522454
Ar       8.32537021       3.81205285      10.12929218       0.06066230      -0.01741240      -0.04765396
Ar      11.67444964      12.29972981       0.36201650       0.04093287       0.01116877      -0.03444311
Ar       5.70704756      15.72202971       5.46746705       0.09017004      -0.07546308      -0.01433211
Ar       1.52763532      16.40559716       6.10525965       0.05853779      -0.11728320       0.05485766
Ar      14.21642967       2.13716531      15.12940418       0.02359356       0.02338174       0.12340981
Ar      13.73838466       5.47191273       6.63779207       0.05410209      -0.01869018      -0.00840361
Ar       3.36158817      12.70996113       6.60331377       0.01418989      -0.04011648      -0.01796111
Ar       6.15887645      10.63288782      16.65877898       0.02353374       0.09225472      -0.00114593
Ar       3.09822234      11.08443515       3.12616999      -0.01250648      -0.07275843      -0.02523783
Ar       3.61703784       0.85989749      17.04804123      -0.06274400       0.05949516       0.02011483
Ar      16.68722377       1.43620554      11.35165486       0.11921659       0.00973158       0.07474127
Ar      11.87242762      16.59132254      15.86287210       0.00208079      -0.03392093      -0.05861811
Ar      11.53127155       6.71952253      12.80923884       0.08001887      -0.01766112       0.10339953
Ar       9.67164965      16.88958815      13.12455772      -0.05340906      -0.05625963      -0.05376338
Ar      11.98877574      13.25336809      12.90325269       0.00685754       0.05568610      -0.01989892
Ar      14.61277563      11.32537491       6.88450018      -0.03185487      -0.01790305       0.02073772
Ar      14.50308468       5.36390489       1.88726884      -0.11489399      -0.02541515       0.02018691
Ar      12.57252747       8.50802847       1.09215917      -0.04174937      -0.07198820      -0.07732078
