108
Lattice="17.35 0.0 0.0 0.0 17.35 0.0 0.0 0.0 17.35" Properties=species:S:1:pos:R:3:momenta:R:3 pbc="T T T"
Ar       2.25743538      10.00921601       7.99890871      -0.04376577       0.07983902       0.01097619
Ar       6.72695971       4.25845404       8.56869001      -0.01655129       0.10168518      -0.01208814
Ar       9.76425324      12.68757199       7.68936996      -0.04651427      -0.02367541      -0.08689489
Ar       3.54781997       3.28650209       9.34383293      -0.12458717      -0.02933004      -0.01769498
Ar       8.71447887       4.60960084      16.73075802       0.07734909      -0.04426341      -0.07178015
Ar       7.96599283       7.44051560      10.61020654      -0.05473963       0.02379311      -0.05744028
Ar      15.41393978       4.22316200       0.06440991      -0.01099214       0.04662876      -0.02926850
Ar      14.61472097       3.63011673       6.25827075      -0.05489652       0.04628286       0.03497913
Ar       9.40003823       6.75283636       6.96690493      -0.02515489       0.03464077      -0.01715871
Ar      12.14692641       7.02502235       3.53465470      -0.04641673      -0.00391997      -0.04647117
Ar       1.31037788      13.07408207       9.32047174      -0.00701364      -0.00891863       0.01224116
Ar      16.66079979      15.62427375      10.02109645      -0.01092433      -0.01368683      -0.00968733
Ar       4.47109047       9.82125448       5.17193204      -0.05238781      -0.04852895       0.01242387
Ar       5.10306416       2.97292963       4.76575238      -0.03774827      -0.02694684       0.02996634
Ar       4.90766781       6.01945895      11.64218176      -0.03780423       0.04881266       0.02445064
Ar       5.93234054       4.50696318       1.85383640      -0.05014988       0.00952832       0.02409033
Ar       0.28333145       0.97443299       2.43848787       0.02351977      -0.06427177      -0.02578087
Ar       8.51145990       6.25756202       2.74065251      -0.02599263       0.02366842      -0.08437061
Ar       7.70083238       5.16038786      13.40829326       0.05238000      -0.02658135      -0.05267585
Ar       0.88959018      10.72677061       3.46999877      -0.01116673      -0.03152490       0.03104699
Ar      11.36186546      16.44497018       5.00056555       0.01885845       0.05448976       0.02922254
Ar       5.12551756      13.61354210       8.16841562      -0.04745985      -0.03781311       0.05081644
Ar       0.46070823      17.02566156      13.09080210      -0.01001757       0.08412619      -0.01354704
Ar       5.95220893       8.82469549       1.58784522      -0.03243812      -0.07075357      -0.07439050
Ar      11.50046260       3.29007608       1.64223900       0.12449419      -0.05534076       0.03512100
Ar       5.58147048       2.68861929      15.11692294      -0.01320343       0.08050028      -0.07183987
Ar       8.76254102       1.02261960      16.36242554      -0.02796143      -0.04554553      -0.11806970
Ar      10.66432051      15.22090831      13.67756560       0.02907789       0.00465818       0.01797179
Ar      16.32867772      12.11776686       6.38710936       0.04889070       0.06846012       0.07543257
Ar       7.89485675      14.98525392      10.51044677       0.10908999       0.01219067       0.02720028
Ar       4.20196319       6.40668945      15.84231163      -0.04301725       0.09259811       0.01124201
Ar      13.90892516      16.30476198      12.60821334       0.02539678      -0.04906360       0.08799967
Ar       7.17860110       9.68208949       6.99710746      -0.02035000      -0.06011957       0.11187474
Ar      13.43076643       7.03141844       8.37475327      -0.03807223      -0.03832179      -0.00191951
Ar      11.85585418       6.38058231      17.09629541       0.03930741      -0.08090057      -0.04974112
Ar       9.01730721       8.23504624      17.04005940       0.02098868      -0.00308114       0.07643750
Ar       2.46189001       7.40531743       3.66228167       0.06198786      -0.11962441      -0.06953811
Ar      10.40892029       0.77323426      11.47238569      -0.06626764       0.02712466      -0.02688137
Ar       7.87833976       0.76324378       8.83614091       0.02061669       0.04543913      -0.01961790
Ar       0.19855505       2.22038303       9.55394521      -0.00734921      -0.00765858       0.03598923
Ar      17.06013193       4.85160584       3.37521825      -0.03411253       0.00682146       0.03976382
Ar      10.52921813      13.02944888       3.95068344       0.09360059       0.06187347       0.03266751
Ar       3.13188174       0.12251789      10.83042474      -0.03922851      -0.00448740       0.02110262
Ar       7.69318162      11.75318031       0.53642845      -0.07779685      -0.07881143      -0.00260546
Ar      12.97902199       9.98396695       6.07868344       0.02732515       0.02741849       0.00853232
Ar      16.26946251      15.94014025      16.09242588      -0.05104397      -0.02986129       0.02956438
Ar       3.23025295       8.71720078      13.56469257      -0.05111962       0.06635309      -0.06834780
Ar       0.68929261       6.53688655      15.14346279       0.02096243       0.04167374       0.02475195
Ar       3.93844723      16.80733746      14.97323329      -0.02037620      -0.00905844      -0.00657844
Ar       6.05985751       2.36685015      11.84732210      -0.04474834      -0.01126676       0.01600039
Ar      14.39371247       4.40524795      10.68230563       0.16001729       0.00401174       0.00977158
Ar       1.77141277       4.15714631      12.88515873       0.02436265       0.00845861      -0.00319079
Ar       6.14960925       6.50825921       5.20781256      -0.04788322       0.05069016       0.06704746
Ar      13.79273132      11.77630179       9.09596844       0.02154143      -0.05215618       0.12436865
Ar       3.81902320      11.94148567       1.76345778       0.00955650       0.05779214       0.11419084
Ar       4.27660140       6.86305880       7.96719815      -0.02883301       0.03888524      -0.03141674
Ar       1.87919491       8.83432782       0.45266091       0.05589812       0.01909377       0.10616353
Ar       1.07240070       1.70155373      15.87467230      -0.02005753      -0.06954112      -0.08632478
Ar      15.57482813       8.16380467       3.75795391       0.01835177      -0.04429955      -0.05145366
Ar      10.68313591       9.65548516       8.72592169      -0.02283576       0.03351628      -0.03678276
Ar      14.42347880      12.71010328      12.79513082       0.07303539      -0.09482268      -0.01174713
Ar      16.51010569      14.73998538       3.31690443      -0.06867424      -0.00817954       0.02996437
Ar       2.44522142       4.14466880       1.93377848       0.00330728      -0.04992329       0.04537787
Ar      14.03680955       0.82190213       2.66422436      -0.01576503      -0.01292195       0.01066937
Ar      17.06379459       7.14123659      11.41412739       0.09613451      -0.01612719       0.10928061
Ar       7.24374750      11.29606895      10.84345449       0.05103147      -0.10286761       0.06455377
Ar       3.85047368      16.35349643       4.17811385      -0.05119817      -0.07232505       0.08103271
Ar       6.96273272      16.04530362       5.41199299       0.02819436       0.09172387       0.00867188
Ar       5.86294935      14.69483277       1.84987738      -0.09021769      -0.02187225      -0.00717953
Ar       0.95471474      12.84936963      13.18958947       0.04143173      -0.06537553      -0.00772293
Ar       4.94501554       0.43891556       7.47976893      -0.03975243       0.02498811      -0.07115245
Ar      10.54646283       4.21675752      10.29047866       0.02360669      -0.13942135       0.00271964
Ar      13.64126270       9.06537881      11.27958788       0.06696447      -0.04165887       0.04111020
Ar      13.41059595      14.12204953       5.85809597      -0.07230697      -0.04428523       0.01312328
Ar       8.39422737       1.83855561       2.78899743       0.07932812       0.07511991      -0.12652167
Ar      11.51119667      14.51702771      10.11389826      -0.02002021      -0.01084470      -0.03572715
Ar       6.77648273      12.58861489       4.90666815       0.03820646       0.04593170      -0.04848795
Ar       4.16373164      13.09904786      15.42238112       0.01073644       0.05271492       0.05435662
Ar       1.93742769      15.42334355       1.02022926      -0.07060244       0.02244827      -0.01916337
Ar      13.01619380      14.98469996       1.42564781      -0.11953099       0.05494953       0.00238582
Ar       0.11992509      12.27638156       0.04395024       0.08228982       0.16192190       0.07112105
Ar       0.96799363       2.30499417       6.12479325      -0.02578507       0.07288475       0.10319498
Ar      10.49991186      10.91712654      12.65655852      -0.03739172       0.09372242      -0.02565176
Ar      16.89848465      10.58313910      10.78450037      -0.00393583       0.01440312       0.01670432
Ar       8.98255618       9.59578218       3.79970576       0.13877677      -0.06400421      -0.03342682
Ar       4.25845727      12.26206652      11.88332588       0.00719176      -0.02345498       0.02599822
Ar      14.70699900       6.46398319      13.89952127      -0.04664749       0.08213418      -0.10322332
Ar       2.68524491      13.01746419       5.45218094      -0.05208522       0.04959730       0.00332064
Ar       7.42125879       9.11657349      14.11675924       0.07862845       0.05274383      -0.00266736
Ar       7.45627164      17.09863421      13.29458680       0.00012047      -0.02614826       0.00195218
Ar      11.62619896       4.00960905      13.64481398       0.01235767       0.11705659       0.00745107
Ar      13.94598215      12.04365880      16.67317260       0.08193036       0.01448716      -0.02535376
Ar       1.69261381      15.82776835       7.03436504       0.07435238      -0.05790526       0.03980867
Ar      15.51585848      17.28271223       6.09311277       0.00539931      -0.13147051       0.01618195
Ar      15.38589887       2.42501762      13.49410042       0.06642885      -0.01191065       0.00021166
Ar       9.72752128       2.99347311       6.42273691       0.04484838      -0.06189608      -0.10598389
Ar       0.13545163       6.36589165       7.82480150       0.01472617      -0.07598255      -0.06043913
Ar      16.36995870       9.92476736      14.10025108      -0.00172905       0.00629863      -0.00919338
Ar       9.77573157      14.73290962      16.88649833       0.01350964      -0.04166826       0.01010107
Ar       4.18953367       1.27272389       0.96007838      -0.01813178      -0.05257509       0.05697115
Ar      13.21855893       1.26722441       8.92071268      -0.00153740       0.00469674      -0.01433366
Ar      12.96259611       0.75978231      16.19276128      -0.02279632      -0.07498192      -0.12828583
Ar      10.81593424       7.11046619      12.61786157      -0.01425424       0.06974743      -0.02946498
Ar       7.62576748      13.08707410      14.45200410      -0.06030825       0.00865318      -0.05214815
Ar      12.81131483       9.10578582      14.90024444       0.03451815       0.06418683       0.06670393
Ar      14.03600654      11.51942318       2.79553348      -0.06072249       0.04721063      -0.00166151
Ar      15.26906315       7.83632426      17.10653238       0.10539974      -0.00817432      -0.06203336
Ar      11.08379882      10.83062997       0.94144673      -0.06165703      -0.02852514       0.00875160
