108
Lattice="17.35 0.0 0.0 0.0 17.35 0.0 0.0 0.0 17.35" Properties=species:S:1:pos:R:3:momenta:R:3 pbc="T T T"
Ar       8.69829790      14.94488506       3.63870048       0.02739301       0.02614415       0.03723303
Ar      10.30784559      10.18619969      11.43871517      -0.00061935       0.00089875       0.00013769
Ar      12.62667029       2.24196567       2.97974479      -0.09754708      -0.03526693       0.02947732
Ar       0.64914337       6.53084453       5.04341020      -0.01293402      -0.03397174       0.06408067
Ar       6.54789737       3.34492878      11.07313933       0.02962661       0.05422018      -0.06224390
Ar       5.00445946      14.83744003       4.46011888       0.08592823       0.00131594      -0.01809162
Ar      13.95786866       6.89219447       6.94105008      -0.01860886      -0.00236913      -0.15756902
Ar      10.26865659       8.13760155       7.74979215      -0.09480423      -0.05625120       0.00468106
Ar       9.60336681      13.75355317      10.76334501      -0.04699585       0.02035616      -0.03832729
Ar      14.93413935       3.98567844      17.18555900       0.04388343       0.01928111      -0.01110831
Ar      16.81303671       8.31365688      11.45822531      -0.06056115      -0.02598226       0.00308410
Ar       2.34127840       0.78312334       7.78253309      -0.00910969      -0.03016625      -0.01653152
Ar      11.44207595       3.52225875       0.13178489      -0.02273871      -0.07068131      -0.06268428
Ar      10.77360830      12.37831065      14.23823439      -0.07621215      -0.00977844      -0.01012855
Ar       2.54493983      15.88371172      16.50568967      -0.01929363      -0.06961853       0.02250960
Ar       3.14023931       4.25955572       7.44447506      -0.04416043       0.09016451       0.04373147
Ar      14.03896141      10.18794875       5.20296593       0.01144112      -0.01409583       0.04996173
Ar       9.12105187      13.43525159       0.10006869       0.00129932      -0.11687069       0.00492865
Ar       9.37583437       0.78092157       5.31887518       0.04942079       0.00000326       0.03377725
Ar       2.37771529       8.71332634       0.52238495       0.11486603      -0.05067311      -0.07322018
Ar      14.54447082       5.40052914       3.55742451      -0.02032814       0.00599228       0.04274381
Ar      16.19011372       1.77833548       9.82987687      -0.08700235       0.00099935      -0.09225839
Ar       6.89264253       4.29476575       6.29578735      -0.07747869      -0.02365661      -0.03737868
Ar       5.13978105       6.35601453      16.90512377      -0.05263000       0.00605004      -0.07771316
Ar      16.96456305       2.70512976       3.07482900       0.10298552      -0.02144275      -0.08438942
Ar       6.88993749       2.98537230      17.22143661      -0.05094792       0.06001345      -0.02594562
Ar       3.98665241       4.00176662      14.01807889       0.00887388       0.07591888      -0.05532591
Ar      10.87616429      16.14557232       8.13360403       0.08047881       0.04808544      -0.01380573
Ar       3.43621809      10.46523603      15.13719516      -0.03675220       0.05112438       0.01491701
Ar      15.42618587      13.57735101       4.29432406      -0.04172889      -0.02991868      -0.02786820
Ar       8.88776462       3.94581275       3.10568118       0.01383865       0.03504000       0.00572726
Ar       9.40923612       3.90404735       9.23228044       0.00304472      -0.06707606      -0.00356156
Ar       3.70679761      10.50169079       7.27462183      -0.01321846      -0.05117210       0.06028033
Ar       6.75210310      11.93848165      11.86815997      -0.05673636      -0.00508552       0.04574293
Ar       1.54829755       0.25573476      12.43228251      -0.06130099       0.01333505       0.04252645
Ar      14.90112244       7.11606487      14.62273217      -0.07388147       0.09124982       0.03870840
Ar       1.46683801       7.11854517      14.56266007      -0.08671376      -0.02019401      -0.07920105
Ar       3.06038130       0.82185326       4.15933527      -0.08308257      -0.02194002       0.04028477
Ar       1.86512899       4.27240663      10.79974044       0.03258304       0.09912637      -0.03969973
Ar      15.07498546      15.75552347       8.39741423      -0.01977867      -0.09097380      -0.01528509
Ar       5.92557076       6.79330700       8.38881899      -0.03725745      -0.00292529      -0.01430962
Ar      13.75695679      10.37403787      12.71972046      -0.01125225      -0.00522412      -0.01130821
Ar      15.64418913       5.19504941      10.34720768       0.00691111      -0.06212922       0.04715374
Ar       3.28913872       4.51203885       2.51280214       0.01576129       0.00823122      -0.06896162
Ar       1.12557265       4.11929809      17.03647904      -0.03368717      -0.03495432       0.01229889
Ar      17.34884139      11.09561871      14.55732872       0.01470247       0.06459065       0.04563213
Ar       3.84951784      14.01178107      13.40407106       0.10013057      -0.00051662      -0.00544840
Ar      16.95187669      17.00024195       5.55809995       0.01715973      -0.10685799      -0.03304071
Ar      10.91577268      15.78872429      13.56227600      -0.03968758      -0.07818809       0.06698126
Ar       2.40376167       7.99593412       9.39872001      -0.01495454       0.03499361      -0.06133935
Ar      11.45621798       7.46201026      14.30959551      -0.02018600       0.09366048      -0.00988687
Ar       8.60848143       6.96960917      10.85467234      -0.02942844       0.03659565       0.00044544
Ar      12.92467387      14.40994882       0.88151369       0.05651283       0.03144010       0.02735540
Ar       5.75056810      15.50568178      10.73582610      -0.02681392      -0.07503944      -0.05369518
Ar       0.49436142      12.63158190       6.72959816       0.01703134       0.05776219      -0.00442849
Ar      12.58942373      16.27699137       5.12116815      -0.07984316      -0.00072441      -0.03776278
Ar       1.64332404      12.40762218       0.28698320      -0.02693132       0.07504492      -0.07260413
Ar      10.94372205       8.56553446       3.58932267       0.01127236       0.03442893       0.03923533
Ar      12.90809888       7.03552500       0.34136204      -0.09780096       0.04126645       0.07561525
Ar       7.18114311      10.50308507       8.37152466       0.04206454      -0.00828809       0.06240745
Ar      16.40344564      14.78859737      17.33691889       0.02543176      -0.05488734      -0.01572854
Ar      10.26696795      12.11341427       7.57870808       0.04965335      -0.01725765      -0.12183347
Ar      10.16092893      17.28836105       0.82285713       0.04905038       0.09675606       0.05407852
Ar      10.53346593       5.41226668       5.65729016       0.01488434       0.03063872       0.01923854
Ar       4.43924917       7.05265273       5.21723390      -0.07109105      -0.04079413      -0.03549160
Ar       1.39546549      14.83897264       2.92864534      -0.01223180      -0.00976072      -0.01603411
Ar       5.51216252      12.57683310       0.54121690       0.00477512      -0.08621374       0.01293279
Ar      12.00753510       6.16201952      10.58930956       0.07161331       0.05464307      -0.01920121
Ar      15.34868158      16.81376330       2.28740681       0.05154117      -0.03954830      -0.02582418
Ar       5.36320189       0.47959623      13.27668098       0.10336822      -0.07245704      -0.06925376
Ar       5.95318939       0.17633390       7.11719461       0.04086657      -0.00000391      -0.05156659
Ar      16.69615574       9.10019059       8.00284979       0.00173735      -0.00266194       0.05321151
Ar      14.50390177      10.64648080       1.55555563       0.05027984       0.10357393      -0.01711899
Ar      16.63567717       4.22560373       7.02563735       0.05235256       0.07627385       0.05642470
Ar       7.87796978      11.25912912       4.72673833       0.01179555       0.04860988       0.03145958
Ar      12.90983477       9.46496302       9.43865221      -0.03787333      -0.02264124       0.00034162
Ar      12.31211253       3.82982182      13.72209915      -0.05384300       0.02045292       0.09654233
Ar      13.29629073      17.13852511      16.08552430       0.00494066      -0.19521105      -0.15279945
Ar       7.79990951       7.05613259       4.06671248       0.04177036       0.04794515       0.00876396
Ar      11.38317322      12.12825270       4.18394796      -0.05648124      -0.00355511       0.08715004
Ar       1.25232823      10.00705051       4.60379134      -0.01802890       0.00728954       0.03503154
Ar       3.48658506      14.59418474       7.87648716       0.16684079      -0.01884292       0.02145631
Ar       9.45021170       1.63011170      15.06191817       0.03779874      -0.01558396       0.07964621
Ar      16.22475252       7.49727009       0.64453236      -0.00893302      -0.04920325       0.05169823
Ar       0.98322468      15.10337295      10.28360723       0.03358818       0.05939903       0.06457527
Ar       4.66361734       9.94340510       3.38724323      -0.03267533       0.00902375       0.06812023
Ar      14.15272035      13.30163668      15.24823045      -0.06372324      -0.08188829       0.04805740
Ar      14.77611820      16.72069571      12.57875799      -0.01172587      -0.04983493      -0.06623613
Ar      13.13923639      13.25994418      10.97920980       0.08956750       0.07433468       0.05381363
Ar       7.94702732       9.95448905       1.34949853      -0.04403077       0.06287444      -0.06331518
Ar       7.63612822       5.05679740      14.04946507       0.01432827      -0.11090755       0.14050008
Ar       9.23465618       6.60849545       0.67094186       0.11804611       0.09020643       0.04828227
Ar      17.30705334      14.62599683      13.50135853       0.06962406      -0.00584117       0.07849928
Ar       7.56535700      14.38971914      14.45208613       0.00945343       0.06255825      -0.05949885
Ar      16.71054316      11.66690086      10.90255082      -0.02256704       0.07896363       0.03142664
Ar      12.37500074       2.66572863       6.98025120      -0.02281515      -0.07784567       0.01705767
Ar       5.16200546       7.23995989      12.12504308       0.13134552       0.02420450      -0.02733883
Ar       6.47902642       1.33930649       3.27358002       0.05837486      -0.02263817      -0.05747124
Ar      11.28402299      10.57665653       0.33770492       0.05039648       0.06672906       0.00244859
Ar      16.98163663       0.63115928      15.50677991      -0.07609791       0.01199090       0.02671931
Ar      15.88105544       3.08280892      13.39886377      -0.03754840      -0.00841546      -0.09602644
Ar       6.40662065      16.83816795      16.68155487      -0.02834316      -0.13901361       0.09215127
Ar       3.25648283      11.30747060      10.74855353      -0.03535203      -0.01333428      -0.06616008
Ar       7.10965570       9.71601393      14.77089485       0.00912944       0.09413217      -0.02030670
Ar       8.48548327       0.26522714      11.41760809       0.01778084      -0.06461904       0.08196726
Ar       7.22220134      14.25542942       7.40921726       0.05352395      -0.04047659       0.03111286
Ar      14.54798111      12.25639508       7.87362369       0.03811430       0.13058551      -0.00137537
Ar      12.28871418       1.92520363      10.47349557      -0.04281271       0.03695087       0.00333724
