108
Lattice="17.35 0.0 0.0 0.0 17.35 0.0 0.0 0.0 17.35" Properties=species:S:1:pos:R:3:momenta:R:3 pbc="T T T"
Ar       9.73256171       0.97203370       6.19265838       0.03543868      -0.01945041      -0.10129090
Ar      11.03921316       8.28734519      13.83329246      -0.04846929       0.02418256       0.06668086
Ar      12.65844555       2.63955809       4.99517190      -0.00258371       0.10423840      -0.07476059
Ar       0.58214788       7.60172887       5.08906789       0.03625133       0.02299101       0.04934139
Ar       6.67269560       2.84930224      11.57322557       0.00467798       0.05690918       0.00292755
Ar       3.13324084      14.55206563       4.68089638      -0.05539570      -0.10061431      -0.03138318
Ar      13.73430158       6.00082741       4.16195762      -0.02000645      -0.02025909      -0.12734839
Ar      10.61065755       7.14282291       6.22402889       0.01879604       0.02785052      -0.01167975
Ar       9.45754181      14.39969327       7.05020767       0.05256766      -0.02390993      -0.10390939
Ar      15.36043077       7.51310826       1.36806374      -0.08507378       0.02380923       0.10512267
Ar      16.45290673       9.00537621       9.23614270      -0.05833894       0.04207484       0.00433906
Ar       5.01483984       3.13476031       8.15771924       0.09262612       0.05588795       0.00332671
Ar      12.86429347       4.47666017       0.57716235       0.03290555      -0.07858306      -0.02672737
Ar       9.63322504       8.08159280      10.20763865       0.01589869      -0.01747850       0.02560018
Ar       3.27752739      17.22499888       0.72447810      -0.06457413      -0.00017535       0.04854580
Ar       1.99487143       3.94875319       6.44473315      -0.01944426      -0.09762248      -0.02069383
Ar      11.86002229       9.36158229       3.81030209      -0.02059033       0.03426453      -0.00344219
Ar       8.55693726      16.15735077       2.24755580       0.04197043      -0.08985568       0.05537472
Ar      10.04116908       4.85606827       3.44223668       0.07036866       0.05646559       0.01421195
Ar       1.23049128       6.46781084       1.37363303       0.02163007      -0.02661344      -0.07586422
Ar      15.03390125      10.60597088       3.40965513       0.02961485      -0.07997227       0.01968831
Ar      15.05221442      16.75705190      11.01983187       0.03856819       0.06238774       0.01396868
Ar       7.04185328       3.90417468       5.17233089       0.03122204      -0.10247609      -0.02297523
Ar       4.12948603       6.22713715       3.66844327      -0.11064375      -0.05152323      -0.05313781
Ar      17.00959059       3.04102472       1.81169757      -0.01334226      -0.07934371       0.03097980
Ar       6.78095127      15.25072585      15.75321761      -0.04460312       0.02090511       0.04907108
Ar       6.15957082       2.89738376      15.10450952      -0.04058807      -0.01787465       0.01481218
Ar      12.24452363       2.25034888      14.87998874      -0.03547904       0.07372663       0.13224624
Ar       2.79377347       1.53461022      15.22404861       0.02162185       0.03561935      -0.04298669
Ar      13.69817875      16.29947358       4.93082399      -0.02208640       0.05276070      -0.06775437
Ar       7.12215267       5.29392407       1.26351568       0.00295135       0.05722322       0.07614214
Ar       8.48526531       3.77457638       8.69190764      -0.06154950      -0.14585343       0.03742261
Ar       4.81932221       9.73287173      10.26133722      -0.04189652      -0.00776082       0.13481558
Ar       7.90926842       6.46976185      12.68690050      -0.00742263       0.01585545      -0.05385783
Ar       4.86609373      16.83490915      12.23089519       0.04591838       0.04938137       0.08119632
Ar      17.06605930       6.07631130      12.15395382       0.03675748      -0.00759200       0.02657682
Ar       0.70523862       4.86000022      15.84628664      -0.06211432       0.02319807      -0.10114016
Ar       2.62659586       1.14024679       4.14162458       0.01379815      -0.02590457       0.04138758
Ar       3.19793903       4.35647759      12.69105421       0.01431471      -0.11950565       0.00361537
Ar      10.84176668       0.85559200      10.29473468       0.05426922       0.01157913      -0.03113189
Ar       6.24062072       6.49940153       9.40480303       0.08895571      -0.01074157      -0.03738140
Ar      13.54349989       7.15364590      11.06338385      -0.02664957      -0.07572093       0.01916848
Ar      14.59561352       3.18924914      11.99285466       0.03752835      -0.01286837       0.07543563
Ar       6.26619772       1.28216130       1.21404819      -0.06743419      -0.07398919      -0.00268924
Ar       3.30342802       3.30755219       1.41577568      -0.05205765      -0.04136155       0.07652364
Ar       0.90773004       8.40458990      14.50559723      -0.02769776       0.02553714       0.06057600
Ar       2.04551905      11.53706033      15.17044609       0.02329703       0.07879876      -0.12545787
Ar       0.08677065       1.39515944       8.99092850      -0.04794409       0.07760627      -0.11932491
Ar      10.53262775      11.88979857      15.03832463       0.01348597       0.08193751       0.04045998
Ar       2.38941735       6.51368682       9.80274194      -0.01407763      -0.00533526      -0.06783831
Ar       9.26141924       4.66329199      15.77822001       0.03056162       0.03204525      -0.01218921
Ar      10.62755228       4.17009217      11.68002619       0.10223878       0.00648130       0.04532599
Ar      15.43451682      13.09883275      16.24056574       0.03735938       0.05289449      -0.01323616
Ar       8.38407599      12.23769678       9.63058113      -0.09038057       0.01267722       0.02630898
Ar       1.82769269      11.81181791       7.68978161       0.06521365       0.02402550      -0.01581313
Ar      14.18122739       1.03288006       7.77814895      -0.04538469       0.02556816      -0.03653222
Ar       3.44046044       8.99570764       0.45295833       0.01714657       0.04552470       0.02199806
Ar       9.14098567      12.40439907       1.04190676      -0.03676720       0.01399226       0.09552192
Ar      13.33122533      10.35879452       0.19629035      -0.04535634      -0.13528307      -0.05216076
Ar       7.16292202       9.18666422       7.22012989       0.02180364      -0.01036543       0.00652687
Ar      13.48065134       1.19562368       0.54398886       0.02995602      -0.06021186      -0.10408597
Ar       8.93000911      11.49257140       4.98431312       0.03447801      -0.00349583       0.02663708
Ar       9.88795349       1.70449449       0.52496090       0.09635636       0.03050986      -0.05058357
Ar      10.72828459       7.39385867       1.07974312      -0.01518432      -0.02416145       0.08552678
Ar       3.44460827       8.73729121       7.05032531      -0.02448180       0.00658629      -0.03623428
Ar       0.06120621      15.72757402       6.43358233      -0.05048223      -0.02473893      -0.02868397
Ar       1.10989556      13.72545048       0.71419725      -0.07625488       0.13843047      -0.03746491
Ar      13.85446575       8.72175936       6.91980801       0.05002221       0.04190251      -0.01084663
Ar      16.32879381       1.62308772       5.14345858      -0.00378548      -0.04130255       0.04578973
Ar       7.98938497      14.53088259      12.34103141      -0.07270876       0.02705208      -0.02114220
Ar       6.04251647      17.08994510       4.72159331       0.02732742       0.02141785       0.04567873
Ar      15.37322881      12.15303836       6.74479833       0.00849970      -0.03757044       0.00389541
Ar      16.89026108      17.04036011       0.99373617       0.00434752      -0.12642181       0.05347772
Ar      15.79286038       4.47135283       8.70290233      -0.00256726      -0.01701592      -0.05207733
Ar       5.23208627      10.21014562       3.04419833      -0.06145791      -0.03513839       0.05410142
Ar      11.12205303      10.79542971       7.85375171       0.04515475      -0.05143773       0.05547581
Ar      11.99672182      16.51399105      13.06926688       0.00500566       0.08131707       0.07393935
Ar      15.85369504       1.84121547      15.19660612      -0.05122516       0.02496747      -0.12229946
Ar       7.89646731       8.08031464       3.81317784       0.03215006       0.03633056      -0.00748045
Ar      12.35839776      12.92498118       4.65576243      -0.10496510       0.01683732      -0.02811857
Ar      16.25293364      13.92065006       3.52414684       0.07080453       0.00380437      -0.00747587
Ar       3.58907806      16.85141077       7.82441190       0.02549921       0.00950026      -0.08526261
Ar       9.16626315       0.66692365      14.37695245       0.17131049      -0.04650256       0.00081516
Ar       0.36397313      10.20000791       0.79212459       0.02571039       0.06549751       0.00110212
Ar       4.72601607      13.60848125       9.51938932       0.06831184       0.03713030       0.06241180
Ar       2.03339089      11.56393768       3.68616992      -0.02265653      -0.00465000       0.05152787
Ar      11.74836603      11.89025107      11.10665631       0.03028410       0.03338437       0.00138576
Ar      16.62525702      15.55882441      13.74529956       0.02835997       0.01418263      -0.00909396
Ar      15.55154184      12.78766141      10.55504236      -0.07691373       0.06425653      -0.09613091
Ar       5.39375700      11.99391573      16.64321005       0.01032526       0.05310543       0.07132462
Ar       4.15696930       5.49030425      16.04843615      -0.09628996      -0.07515021       0.04665520
Ar       7.48825445       8.99094931      17.10704437       0.03012175      -0.00178049       0.06143873
Ar      13.94290158      10.21804959      13.98925812       0.06824772      -0.08026296      -0.05194773
Ar       5.12990440      12.59292742      12.92184417       0.02713133       0.01124505      -0.04308730
Ar       1.10154400      15.12649916       9.87419769       0.05326052       0.09220795       0.00206519
Ar      12.08785870       4.63507170       8.44780042       0.00754719      -0.00690150       0.03040398
Ar       4.27568833       8.04197271      13.41072797      -0.04018017       0.02248867       0.03071066
Ar       5.63941368      13.87247529       2.21221482       0.00861010       0.00188272       0.03487606
Ar      12.57489440      14.65034349       1.62750337      -0.17010004      -0.01101920      -0.03773667
Ar       2.75043703      15.20988041      14.68465606      -0.02010933      -0.01666722       0.01429930
Ar       1.06724236       1.21645281      12.21275445       0.10137618      -0.01471753      -0.04308985
Ar      10.46257338      15.58186322      16.31892855       0.07169847       0.09027514      -0.07867226
Ar       1.25085938      11.32350432      11.55979596       0.05887076      -0.00653459       0.02371596
Ar       7.30522452       9.95935519      13.11711301      -0.05466302       0.06471314       0.00885834
Ar       7.03303162      -0.01122353       9.13016140      -0.07407915      -0.06903648      -0.00868547
Ar       6.01972753      12.42799314       6.41859532       0.03163823      -0.01962414       0.02367160
Ar      13.18488145      14.33251656       8.34877987      -0.01009097       0.04276775       0.00976909
Ar      13.86615731       6.12585903      14.98766045      -0.07601622      -0.10781659      -0.03188562
