108
Lattice="17.35 0.0 0.0 0.0 17.35 0.0 0.0 0.0 17.35" Properties=species:S:1:pos:R:3:momenta:R:3 pbc="T T T"
Ar       9.36061388      15.49320177       7.58192400      -0.03093235       0.00773253      -0.06260719
Ar       7.98543655       8.96434207      10.63283180      -0.05381095      -0.00539948       0.01813354
Ar      12.91780991       2.83700636       3.99223895       0.03296450      -0.05042178      -0.00496756
Ar      16.71324916       5.11914113      16.45393851      -0.03930214       0.02803112      -0.01260885
Ar       6.13685031       6.01411716      10.06726436       0.13860797      -0.04620653      -0.09985434
Ar       7.33434717      13.93372833       3.94193859      -0.02159250      -0.09506910       0.02463537
Ar      13.36640381       3.38671041       7.56467264      -0.01280913      -0.01762321       0.06468713
Ar       6.67273796       8.65315536       7.29931915      -0.00398343      -0.03595702      -0.04907951
Ar       6.80347008      17.26963750      10.28100456       0.05204414      -0.02457679       0.03923788
Ar      15.05800251       0.31240631      15.68747489       0.04463753      -0.01141430      -0.09106488
Ar       1.44024997       8.62791963      10.19463709       0.04513612       0.12371634      -0.03040260
Ar       0.37882118       5.40304093       7.98842117      -0.00835835       0.01890209      -0.12182185
Ar      13.30558710       3.16788081       0.53149734       0.04459073      -0.03257697       0.02801474
Ar      11.35280926      16.73229568      16.75493711       0.03189083      -0.00015510      -0.04735995
Ar       3.92978328      12.46270537       2.22192700      -0.02081426      -0.00395514      -0.05751914
Ar       3.35245261       8.22177799       2.64194015      -0.04790270      -0.02588185       0.04410967
Ar       8.93909068      13.18275668      10.76008488      -0.08662641       0.04613289      -0.00999943
Ar      15.58239505      11.73575093       1.67870953       0.02668849       0.00692739       0.14574725
Ar       3.38894973      17.05388954       8.73572740       0.01512690      -0.04499710      -0.03243901
Ar       6.88660019       6.10615384       0.13024428       0.04793590       0.02292359       0.08638353
Ar      15.27112441       5.55097150       3.88789731      -0.00020153      -0.06895064      -0.03531036
Ar       1.66334514      14.51875884      11.39615652      -0.01761888      -0.04058020       0.04828276
Ar      11.92864427       6.41418458       5.00607682      -0.03607055       0.07039735      -0.06110405
Ar       4.97836113       4.15363726       3.46961419       0.01756868      -0.12215522       0.07462391
Ar       0.95573027       1.68973875      16.22307854      -0.06242531       0.02688532       0.05035003
Ar       1.43402053      11.80807625      16.83997697      -0.01668350      -0.04834595      -0.04155306
Ar       2.28544846       5.44034163      11.12492052      -0.04459980      -0.00026061       0.02602878
Ar      12.58591242      15.39491585       9.70379490      -0.02273222       0.16340779      -0.03365855
Ar       4.89200372      10.35688422       9.90461730      -0.08596886       0.06355256      -0.11546601
Ar      17.33431827      16.78997729       3.91774196      -0.01369857      -0.00809607      -0.06402192
Ar       2.40368584       1.80409338       2.03020266      -0.02666615       0.00181257      -0.03246721
Ar       8.82059613       3.39618861       4.06627146      -0.02606987       0.00842859       0.10257973
Ar      14.45616459       6.77496154       7.65135214      -0.07646238       0.02768173       0.07118440
Ar       4.98507551      13.93652292       9.77884691       0.03813999       0.03269324       0.00166113
Ar       3.93252462      16.25138501       0.19993953      -0.02314709      -0.03423060      -0.01642146
Ar      16.08144014       3.40376520      13.36596822       0.06485163      -0.00339101      -0.04065639
Ar       1.60102279       1.30185099      12.08295195       0.04504528       0.02397029      -0.02014758
Ar       3.34732500      15.38647633       4.14763454      -0.12500450      -0.01777398       0.07499817
Ar       3.94434925       3.68709117      14.01805940      -0.00351618       0.02012848      -0.00844094
Ar      15.49535771      13.26783146       8.88844856       0.02992643       0.07704648      -0.00079156
Ar       4.05314038      12.31097306       6.67317745       0.05360316       0.05813646       0.01525875
Ar      10.00143790       4.29469500      14.76029345       0.00122687      -0.08121746      -0.04319465
Ar       4.53999067       7.74758274      13.48081890      -0.01830769       0.00091655      -0.01359141
Ar       2.83347399       5.22868604       0.33891328       0.08196940       0.00797988      -0.02569406
Ar       5.44169339       2.46960730      16.89953466      -0.05870451       0.05410217       0.02796793
Ar       2.51587176      11.21575294      13.09617978      -0.08901062      -0.01731868       0.00296511
Ar       7.49535881      12.30947646      16.26798636       0.04040506       0.01042814       0.04672541
Ar       2.87994717       1.88237578       5.51702193       0.00940935      -0.03212154      -0.10337318
Ar      12.33062668       1.77986963      13.75368993       0.06385914       0.02038868      -0.06063689
Ar      17.28398023      17.32530729       9.15442036      -0.09147474      -0.01781854       0.01209806
Ar       7.17399837       5.54340376      13.60888262       0.00770082      -0.03115755      -0.01645227
Ar       8.62538115       5.43955825       7.19696932       0.02421639       0.03644263      -0.02629649
Ar      14.00171281      16.50361263       2.41963242      -0.10871494      -0.06482696       0.01626921
Ar       5.33262876       2.86878149      11.26248491       0.00041919       0.07110212       0.00635512
Ar      15.13140340      14.20937497       5.20963222      -0.02471445       0.01646124      -0.02364519
Ar       9.97433652       1.41733781       7.18879251       0.03909796       0.04169769      -0.03417613
Ar       8.06558240       6.85735950       3.70247083       0.07907114      -0.04722745       0.01863498
Ar      10.32324326      13.05568582       1.17647216      -0.07206923       0.05219052       0.01194968
Ar      11.12516535       6.30980378       0.39101515      -0.04192155       0.05626221       0.01608599
Ar       7.84334123      12.19838552       7.59156071       0.02522430       0.12733361      -0.06033922
Ar       0.46053359      14.77072433       1.05192748      -0.01589240      -0.03125029      -0.00725171
Ar      10.36476691      13.38039369      14.31527085       0.02601098       0.00376711      -0.02688287
Ar      10.37598326      17.03305616       2.75042821       0.02016921      -0.00053734       0.03350438
Ar      12.18260658      12.08750071       8.52504810      -0.05089936      -0.07057699       0.09537852
Ar      14.73199603       9.79784217       5.44406600      -0.05980719      -0.02061169       0.05552439
Ar       0.61392247      12.39869015       4.06794549       0.04596378      -0.00779881       0.04799703
Ar       8.25981033       9.53212545       1.12577266       0.02298421      -0.06915085       0.04188916
Ar      10.22174182      10.02130789       5.82094640       0.02308161      -0.07608443      -0.02423717
Ar      16.07381426       2.62647556       2.55336883       0.00503210      -0.02326953      -0.01587445
Ar       4.16583494      17.33216871      13.94629698      -0.00966651      -0.03319799      -0.03796948
Ar       3.43868561       3.32359788       8.40016450       0.00214274      -0.06599101      -0.01649100
Ar      11.69279170       8.83177184       9.47148146      -0.03660748       0.01316965       0.00952343
Ar      15.67507756       8.92692384      15.75680004       0.01893877      -0.07837093       0.07108452
Ar       1.58781826       5.16671716       3.96532030       0.17854424      -0.04583591       0.11119827
Ar       3.96060483       6.51259434       6.90471350      -0.00387384       0.06808809       0.00782494
Ar      13.75875968       9.08395991      12.26534124       0.03540250       0.13279821       0.00762949
Ar      13.46280084       5.58863088      14.89353118      -0.01499317      -0.04225726      -0.03217769
Ar      15.29861095      15.57825119      12.33783904      -0.04856323      -0.01849968       0.09500214
Ar       1.35714011       9.42515445       6.34698722      -0.08411812       0.07802455       0.03474652
Ar      14.36177571      14.00199916      15.98499779      -0.02252474      -0.13109616      -0.01873334
Ar      12.02517018      12.87444011       4.85185399      -0.01102397       0.08712953      -0.00693649
Ar       1.23280197      14.72613996       7.12083683      -0.05269777       0.00853159       0.00252081
Ar       9.25638283       2.25518271       0.46811833      -0.04037957      -0.03235110       0.02141338
Ar      16.94167497       8.33874584       1.71316777       0.06879264       0.09549423      -0.02070742
Ar       4.27402452      13.46241400      15.13651759       0.03787841      -0.03190849       0.05877682
Ar       6.29534032       2.24231008       6.70066735      -0.01028930      -0.04220770       0.03010552
Ar      13.41867283      12.46345149      12.07744683      -0.02786609      -0.02874811      -0.06978407
Ar      16.52718637      12.24784428      13.26094038      -0.08747531      -0.01848758      -0.10069641
Ar       6.81285469      10.33631657      13.62674853      -0.00643400      -0.06564433       0.03955313
Ar      10.33598340       7.48205068      13.50728440       0.00548779      -0.05955501       0.02605518
Ar      12.41118985       5.02892760      11.24609077      -0.00886337       0.14096723       0.00838176
Ar      13.60823408       8.78532223       2.20021094       0.06157030      -0.08996655      -0.01270126
Ar       0.89534982      15.28499128      14.56751768       0.05400188      -0.06726631      -0.03801934
Ar       7.32095218       1.80103735      13.91445509      -0.03252623      -0.06896144      -0.05082399
Ar       0.98777969       7.49707900      14.10803643       0.09516646      -0.07390252       0.03466080
Ar      16.61980166       2.72197999       6.06558688       0.05599413       0.02178277      -0.10779726
Ar       3.97338091       9.72017795      16.59372630       0.00517982      -0.00044506      -0.07765288
Ar       6.11903365       0.25057099       3.51625035      -0.03271499       0.03032412      -0.01454479
Ar      11.95519387       9.47982621      15.64532647      -0.03173273       0.03158736       0.05719192
Ar      14.47126031       1.46349099      10.42702763       0.07360760      -0.07667276       0.01308745
Ar      16.00424789       6.28498289      10.88283865       0.07251013       0.00440419       0.03455569
Ar       7.77030096      15.79681982       0.23371538      -0.01514704       0.10926304      -0.00445438
Ar       1.69654573      11.77599715       9.11216477       0.03610607      -0.01878961       0.06356856
Ar       6.73370304      14.80396757      12.90936242       0.07199696       0.06735713      -0.01397912
Ar       9.60035162      16.68530802      12.14445003       0.05968725       0.03029196       0.00265338
Ar       5.93895283      15.50827935       6.61237768      -0.02766467       0.10966237      -0.02935051
Ar      15.75590972       9.79229900       8.97591123       0.04538588       0.01363443       0.08097333
Ar      13.40466941      17.31598099       6.27540947      -0.07931694       0.04905242       0.06445975
