108
Lattice="17.35 0.0 0.0 0.0 17.35 0.0 0.0 0.0 17.35" Properties=species:S:1:pos:R:3:momenta:R:3 pbc="T T T"
Ar       6.53941948       0.91424794       8.16674258      -0.02563667      -0.08077445      -0.05393920
Ar      10.65449611       6.76290555       9.31174709       0.01648285      -0.04427028      -0.05289590
Ar      11.13608376       4.22240550       6.02872737       0.00528895      -0.10128570       0.09254317
Ar       0.06613174       8.07603017       5.78907186       0.01434791      -0.00529465       0.05129088
Ar       7.45970905       5.19317403      10.14010845      -0.03799900       0.02715489       0.09716500
Ar       4.33096053      16.63539838       4.59605384       0.05341424       0.02778578       0.05479023
Ar      14.69932689       5.33773745       4.46691582       0.00009350       0.03166555       0.09505706
Ar      14.42901495       4.04617845       8.67182773      -0.01551508      -0.05037621       0.06325940
Ar      11.25665502       0.94973315       4.74862663      -0.03667790      -0.07866609      -0.07708017
Ar      15.65171076       3.95812248       0.89081543      -0.05963165       0.02028240       0.04391372
Ar      13.33555416       7.68240900       7.36921745       0.07019488       0.00138839      -0.00195155
Ar       4.55609833       4.11029698       8.28937075      -0.01448705       0.10676075      -0.01820198
Ar      12.35773429       2.61148293       1.76730655      -0.02425497      -0.01448873       0.03407807
Ar       7.85627319       5.38437515       6.08337396       0.05774261       0.03187382      -0.04379487
Ar       8.83053498       3.36804657       3.22147389       0.03700499      -0.02778623      -0.07286351
Ar       1.15083679       4.56898706       4.00480143       0.05926351       0.05126848      -0.00642473
Ar       6.67980952      14.35052632       7.40676477      -0.01862809       0.07385100       0.01256736
Ar      11.31696750      16.78283300       1.24522545      -0.07467884       0.02347168       0.03368598
Ar       5.42627775       7.66575697       8.67719673      -0.00584111      -0.06008559      -0.02783406
Ar       1.20930161       7.76908807       1.77446614      -0.08572963      -0.00625196       0.04498034
Ar      13.48329662       8.66502555       3.67367735       0.06977142       0.07403041      -0.00244986
Ar      11.99648134      16.35664492      10.67199075       0.05590559      -0.11012722       0.03272062
Ar       4.81889346       3.28657611       4.06292951      -0.03564439      -0.05253579       0.05137052
Ar       3.97215149       8.70621328       4.47981725      -0.03532718      -0.08505674      -0.02005302
Ar      15.67469967       0.24098594       1.67537381      -0.02461790       0.04519189      -0.04056390
Ar       6.09669276       2.54342280       0.47607482       0.06121559       0.03465484      -0.02663775
Ar       3.47363863       3.24446987      15.29736195       0.00118130       0.06580528      -0.00000444
Ar      11.28612632      16.88047376      14.29369644      -0.08614615      -0.05802583       0.06508419
Ar       0.04696077       2.15287684      15.56157284       0.01114415      -0.01591263       0.08890933
Ar      15.39621620       2.07283415       5.20016348      -0.05273166      -0.09584423      -0.06920304
Ar       8.79814735       5.68878874      17.23398144       0.02242188       0.02622505      -0.05633794
Ar      10.59987739       2.66733297       9.48727561       0.00679697      -0.00874145      -0.03337130
Ar       8.73759974       9.98181531       9.89468992      -0.04928582      -0.00305340       0.03355582
Ar       6.66694324       3.90021198      13.34556935      -0.02801315       0.09106626      -0.03821239
Ar       2.21897306      16.69316748      12.85481384       0.10027630      -0.00891224       0.10530856
Ar       2.36360203       8.93769321      11.69660802      -0.00254708      -0.05840545       0.08714750
Ar       2.47147672       6.91880829      14.73242629      -0.06220738      -0.08038851      -0.02740217
Ar       2.74435115       1.49952012       2.29427584      -0.00496811      -0.01245374       0.01830027
Ar       4.30707729       6.08863229      11.79401788      -0.07983270       0.03038741      -0.00471469
Ar       8.45253411       0.28207234      11.46967858       0.01268892       0.05142965      -0.12334625
Ar       2.25324035       6.87491566       8.14147869       0.03196902      -0.00264634       0.09152706
Ar      13.01491732       6.45773428      12.06667564       0.01439665      -0.01537245       0.03260455
Ar      14.76050505       3.04863700      12.35146587       0.01931432       0.01074772      -0.04600455
Ar       7.12653110       6.75982693       3.00718920       0.13377169      -0.06275874       0.00461974
Ar       3.71836068       5.39952516       0.82715034       0.06179162       0.13648739       0.08049070
Ar      16.71101806       6.41399245      10.69601321      -0.11609694       0.00679349      -0.01694200
Ar       4.41427523       9.98518926      14.72995917      -0.03491592       0.01285916      -0.02582690
Ar       1.00521408       3.94040124      12.52469565       0.07876613      -0.07702566       0.06535482
Ar      12.34474014       8.37933604      15.27092528       0.00549310      -0.09744095       0.00674462
Ar       0.46906879       2.70980278       9.04366129      -0.05603461       0.02961985      -0.03987721
Ar      12.41072267       4.72666223      16.06261597      -0.00740609      -0.04324784      -0.06692696
Ar      10.30675377       3.08973269      13.10267875       0.12410516       0.07375920       0.11672118
Ar      13.99452081      14.51438920       2.68153057       0.10361416       0.03118793      -0.04593474
Ar       5.32572508      16.25425641      10.53792144      -0.03669957       0.02864019       0.03816288
Ar       0.92761097      11.02573856       3.29696845       0.00288650       0.06893387      -0.01825759
Ar      16.28575493      13.27419807       5.46202645      -0.01895882       0.00069330       0.02192536
Ar       5.33262573      10.16094380       1.74324263      -0.00336785      -0.04978260      -0.02958245
Ar       8.84749721      10.24794361       3.15866794      -0.10688728      -0.02133400      -0.00820313
Ar      12.23689436      11.06073819       1.44718085       0.05717547      -0.01528618      -0.01415689
Ar       9.78724606       8.79080687       6.54752486      -0.07263136      -0.05516960       0.02526225
Ar       0.20618995      16.09711878      16.39397690      -0.00466515      -0.02003821      -0.09581569
Ar       6.34558172      13.77256610       3.12114400      -0.09539904       0.00407804      -0.05260357
Ar       9.85445901       2.12274680      16.64431446       0.09395744       0.01025231      -0.02011925
Ar      15.44467557       8.83279353       0.55667011      -0.08425957       0.03349198      -0.06730767
Ar       6.53573104      10.83259349       6.93793107      -0.05104008       0.03658519       0.00869039
Ar      13.41621861      16.28912080       6.90781679       0.09330914       0.04893454       0.02110274
Ar       1.89888966      12.91377825      15.46755119      -0.12663434       0.05705426       0.04706674
Ar      13.05639116      12.08077001       6.03102714       0.00911094      -0.00490852       0.06084448
Ar       0.81158044      15.89112086       3.79885927       0.04011574      -0.00992426      -0.01727045
Ar      10.04835825      13.69260631      17.02743467      -0.07291198      -0.07430025      -0.05921153
Ar       8.18812478      17.16600506       3.91389161      -0.03335474       0.02892239      -0.01776852
Ar       9.91914898      16.57769696       8.06395851      -0.11658036       0.05750087      -0.02976422
Ar      16.46179025      12.78663933       0.22044410       0.00551454       0.00117554      -0.08375272
Ar      16.49982069      15.53517050       9.27948290      -0.01542967      -0.03665592       0.05125091
Ar       3.27102404      12.85245413       5.07802922      -0.03177444      -0.09057253      -0.02821026
Ar       9.97527658      12.65185304       7.67431676       0.00630548      -0.01129903      -0.13676951
Ar      13.60743245      11.58475094      15.35024831      -0.04153968       0.00878514      -0.00777028
Ar      13.74957414       1.24679532      16.22186023       0.02578878      -0.02944748      -0.06931099
Ar      11.25872086       5.82504954       2.77064475      -0.08376977       0.04007325       0.07508397
Ar      10.54909029      13.40509155       3.82409720       0.00921985      -0.00401390      -0.02421176
Ar       3.13159427      13.94158896       1.64031201       0.03379540      -0.00853015      -0.06537761
Ar       1.57862477       1.48555333       5.85374503       0.03151969       0.07247152      -0.05754997
Ar       8.14195399      14.85360704      14.31729854       0.00539462       0.08713446      -0.07936299
Ar       0.33603995       9.70693395      15.27570753       0.04047002       0.09019052      -0.02577770
Ar       2.01468563      12.87294249      11.92501402       0.00517238       0.05443138      -0.01437601
Ar       2.65466971      10.53013130       7.81273035      -0.00167801      -0.06146541      -0.04013106
Ar      11.99263241       9.74414009      12.14912725      -0.05761529       0.00710998      -0.02716741
Ar      17.08183018      12.12891725       8.98996070       0.01535638       0.11378983       0.02841243
Ar      13.36307269      12.56966126       9.96739693       0.02883294      -0.04486722      -0.04953223
Ar       4.93413267      13.65417267      13.49729820       0.13682827       0.05531121      -0.02102946
Ar       5.99665388       6.41342758      15.67300890       0.05329214      -0.01754713       0.07764473
Ar       8.69514807       9.53979365      17.10564287       0.03484044      -0.06684231       0.05243447
Ar      16.16971786      10.07002920      11.68272080       0.00883095      -0.02906351       0.06639812
Ar      15.79774068      13.74807290      12.14589816       0.03674401      -0.03731125      -0.00456001
Ar       2.64814152      14.39748888       8.71154865       0.05172285       0.12319110       0.01239954
Ar      14.65584572       0.87241376       9.53353786      -0.03417394       0.13974671      -0.01617118
Ar       9.48211092       6.63834056      13.36315065       0.03508417      -0.03155922      -0.03875033
Ar       6.43406176      12.80227150      16.80216906      -0.00667551       0.04898512       0.03625851
Ar      14.05212021      15.02477649      15.79173057       0.07702347      -0.05483930       0.00529813
Ar       3.79530180      17.03659132      16.29783326       0.01899840      -0.00262266      -0.03195169
Ar      15.63932661      17.09518119      13.41635503      -0.00444234      -0.11109444       0.09743143
Ar       7.62528817      16.27265553       0.68039801       0.01293709       0.04711052       0.05924922
Ar       5.17983104      10.93793870      10.47040521      -0.00942448      -0.02661611       0.03700218
Ar       7.98402606      10.67595146      13.69947724      -0.04053043       0.06058648      -0.02133077
Ar       3.98382229       2.32778109      11.43836633      -0.00596862      -0.08131215       0.03394718
Ar       7.99274777      13.71879854      10.73560700      -0.00708518      -0.08856022       0.01654558
Ar      11.10978237      13.10070404      13.08205849       0.03063830       0.03750067      -0.04642196
Ar      15.96560993       6.84006236      14.16892120       0.00902978      -0.03623594      -0.01783005
