108
Lattice="17.35 0.0 0.0 0.0 17.35 0.0 0.0 0.0 17.35" Properties=species:S:1:pos:R:3:momenta:R:3 pbc="T T T"
Ar       6.49172332       0.78630676       7.95269799      -0.02770183      -0.02155819      -0.10728694
Ar      10.66511261       6.60592345       9.23491357      -0.00156778      -0.07829791      -0.01144252
Ar      11.21534525       3.99211907       6.27827143       0.05476268      -0.08167206       0.09343460
Ar       0.06164857       8.08620239       5.86407409      -0.01471758       0.01179368       0.01185532
Ar       7.43629934       5.24484692      10.34210695       0.02156165       0.01967224       0.04842616
Ar       4.49400298      16.68340308       4.75469655       0.07047162       0.01232965       0.07013503
Ar      14.69259939       5.44399876       4.69808991      -0.00302924       0.04270208       0.08928825
Ar      14.33130469       4.19886054       8.73868906      -0.06510302       0.17863295      -0.01395041
Ar      11.25879753       0.74088548       4.60683856       0.03510609      -0.08761661      -0.02947428
Ar      15.51361798       4.03464194       1.01138054      -0.04874927       0.04211602       0.05076679
Ar      13.55846707       7.69657608       7.33771068       0.10027203       0.01067600      -0.01686070
Ar       4.52293721       4.30687952       8.21958337      -0.00682084       0.03764487      -0.03595404
Ar      12.35210271       2.65849151       1.89905689       0.01895158       0.04683650       0.06143195
Ar       7.95862206       5.45298831       6.07931335       0.02713410       0.01720592       0.04042102
Ar       8.87906076       3.25700384       3.01338809       0.00421524      -0.05880959      -0.08868649
Ar       1.28932123       4.72388162       3.97510161       0.05114610       0.07204659      -0.01674284
Ar       6.61076990      14.56815281       7.41872406      -0.03565374       0.09100366      -0.00184987
Ar      11.13068392      16.74019362       1.31829176      -0.06828869      -0.05283738       0.02160397
Ar       5.54322304       7.62176429       8.59177060       0.09050304       0.02813459      -0.04183751
Ar       1.00419739       7.74598580       1.89564894      -0.08331795      -0.00896518       0.04953773
Ar      13.66839409       8.83729125       3.72062337       0.07878969       0.06156844       0.04015918
Ar      12.14413194      16.04301967      10.81024690       0.05708227      -0.13360613       0.06318714
Ar       4.84157410       3.24106668       4.27888848       0.04051990       0.00382803       0.10751415
Ar       3.84989036       8.46266190       4.50007390      -0.05759784      -0.10556973       0.02716365
Ar      15.62362879       0.37225464       1.60413874      -0.01202866       0.05716182      -0.01999521
Ar       6.26365192       2.63161749       0.41573087       0.06861496       0.03717003      -0.02238495
Ar       3.50234475       3.40624153      15.28703532       0.02651746       0.05785499       0.00119412
Ar      11.07186917      16.73368162      14.44436177      -0.06832186      -0.05268641       0.05728189
Ar       0.06416017       2.14477440      15.78492769       0.00399183       0.00981024       0.08952539
Ar      15.25381951       1.78539829       5.03604655      -0.06006487      -0.12268272      -0.06329903
Ar       9.01498010       5.70025086      17.15729525       0.14126959      -0.01641783      -0.01267411
Ar      10.63134623       2.65572999       9.40636561       0.01911877      -0.00099976      -0.02214352
Ar       8.62171978       9.96117360       9.99476456      -0.04086759      -0.01569699       0.04123272
Ar       6.62840144       4.04722514      13.30839238      -0.00640487       0.02076921       0.02296807
Ar       2.44110565      16.65287985      13.11591356       0.07128021      -0.02570121       0.09782614
Ar       2.28873368       8.87845695      11.88083014      -0.06063926       0.01827660       0.05772509
Ar       2.29425984       6.68709509      14.71757544      -0.07827009      -0.09416177       0.01916443
Ar       2.62629346       1.40489227       2.20656857      -0.07188057      -0.05156978      -0.07529452
Ar       4.13935366       6.08990812      11.75465522      -0.04847925      -0.03597287      -0.02978217
Ar       8.50365125       0.41269336      11.19191478       0.02329719       0.05096736      -0.09358740
Ar       2.19968853       6.82830459       8.40407974      -0.07317237      -0.02621704       0.11843534
Ar      13.06188150       6.35564060      12.13420462       0.01655607      -0.05806419       0.01919597
Ar      14.80086947       3.11897276      12.29261114       0.01635666       0.04397178       0.00640307
Ar       7.42485059       6.64892514       2.94071453       0.10076397      -0.02395631      -0.05998636
Ar       3.86631444       5.71752926       1.07824572       0.05615957       0.11536433       0.11907338
Ar      16.42630292       6.43801230      10.61002818      -0.10467401       0.00945752      -0.04702399
Ar       4.33208311      10.03516490      14.67395840      -0.03074359       0.02589168      -0.01733978
Ar       1.17809828       3.77143764      12.69239457       0.04703060      -0.05344329       0.05929885
Ar      12.34640079       8.09618317      15.34372207      -0.00334350      -0.11281502       0.04222174
Ar       0.36147319       2.79939141       8.96658836      -0.02849151       0.04236155      -0.02220675
Ar      12.41518170       4.63893850      15.89048382       0.02131678      -0.02502982      -0.06063340
Ar      10.63477325       3.25350391      13.36522633       0.13198707       0.04865115       0.07480768
Ar      14.24010923      14.57129845       2.56880606       0.09003118       0.01340759      -0.04299659
Ar       5.18697070      16.24883152      10.70638985      -0.05641085      -0.02533492       0.08725617
Ar       0.88119148      11.16492111       3.20145523      -0.04426087       0.03909296      -0.06192782
Ar      16.28002809      13.29523236       5.52755525       0.01458830       0.01723553       0.02914113
Ar       5.33355355      10.05824599       1.61296070      -0.00206398      -0.03707965      -0.06768851
Ar       8.58360000      10.20691970       3.20533404      -0.10059618      -0.00802587       0.04669755
Ar      12.35620372      11.05923737       1.37646952       0.03464506       0.01581117      -0.04047620
Ar       9.59968874       8.67713379       6.56369917      -0.07594958      -0.03322953      -0.01038716
Ar       0.23075989      16.02144207      16.18970537       0.02596018      -0.02932847      -0.05197535
Ar       6.17865516      13.76705039       3.03323322      -0.03229568      -0.00730982      -0.01246445
Ar      10.02468442       2.13701604      16.59476671       0.03829212      -0.00233515      -0.01135743
Ar      15.19406888       8.92618045       0.36957580      -0.10658265       0.03899073      -0.08336881
Ar       6.40201378      10.90258957       6.93726149      -0.05445175       0.02237566      -0.00769197
Ar      13.64255093      16.35939170       6.92453944       0.08355795       0.00608991      -0.00779322
Ar       1.70573379      13.08610589      15.53602874      -0.00389768       0.07716394      -0.01140044
Ar      13.09445669      12.02922604       6.17365561       0.02515682      -0.03668653       0.04768644
Ar       0.90308360      15.85816148       3.74511381       0.03258805      -0.01657217      -0.02460076
Ar       9.91827161      13.47970112      16.89936286      -0.03102185      -0.09124573      -0.04540983
Ar       8.01876030      17.21139453       3.95781954      -0.09810862       0.00914980       0.05680762
Ar       9.60634726      16.70320196       7.93078075      -0.10986721       0.03707994      -0.06874422
Ar      16.40352861      12.75139959       0.09938991      -0.06133425      -0.03567904       0.00010507
Ar      16.49857222      15.50881257       9.35560318       0.00216692       0.04426100       0.01533899
Ar       3.25527044      12.68175558       5.06378741       0.02340871      -0.04110952       0.01639118
Ar       9.94718423      12.63493854       7.35766644      -0.03769825      -0.00200832      -0.11101985
Ar      13.52588030      11.57948636      15.31113965      -0.02770876      -0.02320537      -0.02658661
Ar      13.80685607       1.20890225      16.02324951       0.01262753       0.00129792      -0.08125404
Ar      11.07792249       5.99867663       2.95035513      -0.05765746       0.09442552       0.07238964
Ar      10.55062502      13.43275367       3.74865109      -0.00510298       0.02327889      -0.03692467
Ar       3.16700055      13.92869626       1.42676996      -0.01082762      -0.00144361      -0.10246420
Ar       1.67904731       1.64924161       5.72868437       0.04478367       0.05631540      -0.03967716
Ar       8.17470685      15.11537480      14.11214324       0.02398418       0.11878331      -0.07694148
Ar       0.43311505       9.93617496      15.19899908       0.03274396       0.07720117      -0.03453287
Ar       2.00597542      12.97342887      11.86092469       0.00006864       0.02825343      -0.02899184
Ar       2.66693149      10.36282006       7.71622057       0.00854456      -0.06967954      -0.03298682
Ar      11.82898300       9.79954957      12.03342507      -0.06963369       0.02620873      -0.05566236
Ar      17.12325336      12.31545839       9.02756654       0.02456607       0.01236539       0.00064908
Ar      13.40157475      12.45252510       9.81238401       0.00609573      -0.04664220      -0.06805064
Ar       5.24587295      13.77328158      13.43589811       0.08677490       0.02852707      -0.03183990
Ar       6.00319881       6.46175007      15.78466629      -0.03856964       0.05313163       0.01545469
Ar       8.78455874       9.36318851      17.17769012       0.03675632      -0.07158574       0.00331702
Ar      16.16528342       9.97875076      11.87498783      -0.01296947      -0.04010968       0.08093947
Ar      15.87789873      13.62112216      12.24187337       0.02073538      -0.06550384       0.07670404
Ar       2.79204248      14.69958294       8.70387644       0.05685439       0.11414891      -0.02111013
Ar      14.56244236       1.06135436       9.55885485      -0.03799662      -0.01600243       0.03492310
Ar       9.54861505       6.59439565      13.27038816       0.01615147       0.00038154      -0.03515131
Ar       6.39906252      12.91400435      16.88374733      -0.02275195       0.04018031       0.02375796
Ar      14.19202998      14.88788042      15.85864919       0.02310318      -0.04986371       0.05119033
Ar       3.86311755      17.01851389      16.24243004       0.03801134      -0.00957116      -0.00534495
Ar      15.64436926      16.87340173      13.55927111       0.00821967      -0.05292357      -0.00213698
Ar       7.62310369      16.37808348       0.70930701      -0.01618628       0.03433282      -0.03914563
Ar       5.15642110      10.89778813      10.58519406      -0.01285743      -0.00741645       0.05316697
Ar       7.88924287      10.84461798      13.63278861      -0.03447951       0.07324609      -0.02814908
Ar       3.99904658       2.12007481      11.50087148       0.02130421      -0.07659085       0.01344633
Ar       7.98699684      13.49297462      10.78617653       0.00090707      -0.08749071       0.01920830
Ar      11.18215547      13.22400682      12.96441332       0.02636367       0.05829423      -0.04588611
Ar      15.98276758       6.73124865      14.16500877       0.00744261      -0.04660873       0.01672632
