108
Lattice="17.35 0.0 0.0 0.0 17.35 0.0 0.0 0.0 17.35" Properties=species:S:1:pos:R:3:momenta:R:3 pbc="T T T"
Ar       7.93492830       2.43815870       6.93776866      -0.00918232      -0.05297706      -0.01697960
Ar       9.48616396       7.48206407      11.49977792       0.01948802       0.02386746       0.01713310
Ar      11.37023645       3.61424797       5.41845425      -0.10624255      -0.02569723       0.03059921
Ar      15.59355882       7.19738757       5.21175689       0.00803482       0.07329834       0.00556329
Ar       7.43082712       3.51012960      11.15561130       0.00283364      -0.08764691       0.01913378
Ar       3.59224348      13.48948807       4.83750007       0.01239788      -0.06070275      -0.02136900
Ar      15.03959123       3.61772015       3.44324701      -0.00693147       0.04631027      -0.07612680
Ar      14.02663793       5.70668546       7.81613444       0.05436405       0.03753390       0.02499019
Ar      10.00168970      17.13287766       5.86226191      -0.03469182       0.02475389      -0.04515059
Ar      15.20582502       6.20609744       1.13122243      -0.03870602       0.00211557       0.00250445
Ar      13.80563991       9.65386676       7.97560941       0.04347775       0.06194222       0.08018838
Ar       2.69638956       3.19216236       8.49346093      -0.00092651       0.08276120       0.06784532
Ar      11.59554227       5.76084258       1.50822601      -0.00014532      -0.02680096       0.01561326
Ar      10.33578577       7.56654789       8.16307491       0.05516254       0.00521066       0.07553725
Ar       7.86342645       2.41836441       2.43613711      -0.08706185      -0.01895969       0.00268683
Ar       1.73587273       4.71381598       5.41362908      -0.02785779      -0.00552674      -0.05685698
Ar      10.85221871      10.67206779       5.56806682      -0.01775098       0.03362270       0.00114835
Ar      11.41680114       1.91479909       1.85133834       0.01081278       0.02807172      -0.05515204
Ar       6.72303480       5.84388081       8.67923876       0.01396300      -0.08800842      -0.09501837
Ar       1.60030025       6.40910303       2.51908006       0.05153213       0.01852297      -0.01479580
Ar      11.36347668       7.10122474       4.87646473      -0.10913406      -0.09071921       0.00478106
Ar      13.51530289      15.89939198      11.02914736       0.09494691       0.04085462      -0.01723476
Ar       4.86994466       3.17006745       5.33387986       0.06855343      -0.00989790      -0.00199600
Ar       4.70657202       6.77807126       3.92717641       0.04785907      -0.04100589       0.04537713
Ar       0.57032173       2.58625689       1.86117966      -0.00442790      -0.02370821       0.05260610
Ar       7.77959749      17.14616826      17.01579718      -0.00484823      -0.06266555      -0.02750658
Ar       5.72875927       1.60583411      13.18769355       0.06825856       0.01102071      -0.00590949
Ar      11.31081351       0.77937807      14.59224545       0.03596493      -0.00348358       0.03371171
Ar       0.59890948       1.23498510      15.93243227       0.00656869       0.00343311      -0.04247406
Ar      13.05032416       0.53415070       4.55293059      -0.02126704       0.01724530       0.01679624
Ar       6.69435146       5.99749918       1.25308111      -0.02549830      -0.07429583       0.00705848
Ar      11.30458581       4.30505597       9.65719867       0.00492847      -0.03500075       0.01266247
Ar       6.40104905       9.34512986      10.04320004      -0.01770290       0.01944261      -0.04086605
Ar       7.35186143       5.27715079      14.51565437      -0.00997417       0.03973317       0.00773965
Ar       3.16824938      16.56840141      11.22890126      -0.00777278       0.02807047       0.02191419
Ar       1.04824858       7.42465032      12.98094031       0.03567029       0.00170433      -0.00634201
Ar      17.19864023       4.51392434      14.63454891      -0.00524315       0.11732611      -0.05327214
Ar       3.37361524       0.08921444       2.53159835      -0.01393982       0.00376019       0.00823509
Ar       3.86159117       5.54144395      11.12773529      -0.03271611      -0.00402316      -0.03344446
Ar       9.86277678      17.26855640      10.30323283       0.02597486       0.04470940      -0.07610931
Ar       3.49547682       7.27810809       7.65594468       0.09797218       0.00335019      -0.07032437
Ar      14.15482534       6.38139779      11.57822675       0.06143096      -0.02688641      -0.03662477
Ar      15.16591889       2.48943647      12.66240636       0.01391511       0.04201557       0.00786476
Ar       8.37408316       5.10357428       4.30234722       0.12850051      -0.00978744      -0.06759537
Ar       4.01165438       3.79487230       1.93260721      -0.00121489      -0.03793048      -0.04149723
Ar      16.56780906       9.92579614      10.94100652      -0.01621233       0.01362150       0.06283343
Ar       1.72090097      10.61377533      15.63498813      -0.00519579       0.01945745       0.02550779
Ar       1.34253434       2.44314959      12.17829314      -0.08442883      -0.09739981       0.00144751
Ar      11.72611913      10.64772132      14.66736758      -0.01854017      -0.02892195      -0.05290333
Ar       0.08711951       6.28921349       8.50803168      -0.05595867      -0.02549653      -0.05252146
Ar      10.60692279       7.13147796      15.74776710      -0.02614992      -0.01519136       0.03408900
Ar      10.45540820       4.42929781      13.10941591      -0.13094603      -0.05025715       0.05603154
Ar      16.91017993      11.05777055       1.14762409      -0.05271355      -0.06690002       0.00445027
Ar       8.01856335      14.57565268       8.38293311       0.00487011      -0.04927613       0.08286149
Ar       0.06560088      12.18554075       6.95751386       0.07245059      -0.12680677      -0.01516228
Ar      16.77166184      17.29873068       8.94726228      -0.01895821       0.06277746      -0.05216221
Ar       4.83948919       8.73042054       0.73911313      -0.00852448       0.07860193      -0.10008434
Ar      10.00265375      12.53145426       1.14479380      -0.02219556       0.04351871      -0.02652910
Ar      13.38649971      12.72266326      17.04644842       0.01715604      -0.11338722       0.02086663
Ar       7.33149816       8.61426258       6.22163002      -0.01852463       0.07970044       0.07546484
Ar      15.01128447      16.54467413       1.75745196       0.00725527       0.05606491       0.04661179
Ar       8.96187491      14.49675891       3.93611807      -0.05152228       0.02188256      -0.05297767
Ar       9.47169577       3.41856937      16.82279609       0.00329572      -0.08498268      -0.02242035
Ar      13.36655314       9.28082598       0.44542187       0.11293627      -0.03770627      -0.01440372
Ar       3.76819703      10.61818157       7.04084753       0.00762955      -0.00994670       0.17089327
Ar      14.68942350      15.17749079       6.64242203      -0.08153837       0.02699774       0.06071359
Ar       2.58277231      13.09514419       1.21256024      -0.06729979       0.01005151       0.03448929
Ar      14.34763180      11.22615458       3.83642319       0.09493205      -0.04856648      -0.06411740
Ar      16.77402804       0.28039167       4.48059838       0.04832955       0.07263578      -0.03627423
Ar       9.10070482      14.12481137      15.31931960      -0.05021591       0.08353266       0.00209558
Ar       6.20702085       0.03121712       5.11650559      -0.02201771      -0.06010248       0.01768967
Ar      11.60856659      14.66833237       8.21866808      -0.02861701      -0.01700184       0.03962331
Ar       0.05567067      14.76684060      16.54064532      -0.05723151       0.03876696       0.05323730
Ar      16.24127831       2.71611770       6.86107381       0.09584125       0.05499782      -0.01145742
Ar       6.43055681      11.21422798       2.57023972       0.05254792       0.07135967       0.03670361
Ar       9.42613492      11.22709692       9.04135603       0.00987335       0.00210144      -0.04653903
Ar      12.53443999      14.17142941      13.72571220      -0.01830458       0.04850629       0.06491977
Ar      14.63881028       2.93785137      17.03041744      -0.04499116      -0.04532128       0.13451823
Ar       9.37000950       8.16594003       1.94912870       0.04638112      -0.04580966      -0.05488112
Ar      12.46781650      14.31806610       4.25277021       0.06128256       0.06038364      -0.04220216
Ar      16.92393485      13.94476388       3.67644890       0.00800989      -0.00975549       0.01131357
Ar       2.51316277      16.37976132       7.14880071      -0.02935614      -0.04751422       0.11062790
Ar       7.25477895      15.60694210      12.10963286       0.02182888       0.04988118      -0.02181836
Ar       0.05507331       7.42893012      16.46888161      -0.07155173      -0.03092059      -0.01696640
Ar       5.59528227      12.57999891      10.88046692      -0.14750132      -0.03296264       0.06292736
Ar       2.37151588      10.14837393       3.52326682       0.00997207       0.05516355      -0.06855853
Ar      12.26312059       9.67474050      11.38041277      -0.04386200       0.00629585      -0.06215485
Ar      16.50529524      13.17029343      13.44581363       0.08335669       0.00431044       0.04118048
Ar      14.10143860      12.63490509       9.81268979      -0.06369169      -0.07453185      -0.07514439
Ar       5.20406574      12.24179451      15.85098333       0.09442523       0.13891810       0.04422710
Ar       3.79170965       5.10169763      15.83470474       0.02449234      -0.05888300      -0.00049433
Ar       7.71946216       8.89309173      16.04815045      -0.00887345      -0.07057053       0.05246837
Ar      15.36246205      10.00354451      14.79107055       0.05298114      -0.02478397      -0.00577799
Ar       2.60864858      13.07647813      12.99219012       0.02841586       0.02498475      -0.07810652
Ar       2.55512498      13.38629777       9.16415564       0.01871470      -0.08215956       0.01510485
Ar      12.83960352       0.78515222       8.22473973      -0.09688131      -0.00407335       0.03901650
Ar       5.30182297       8.05222352      13.27070763      -0.10228173       0.02605842       0.01263728
Ar       5.86257021      14.70854389       1.65564886       0.07247540      -0.04195333       0.07995060
Ar      14.57014023      16.83470877      15.67053325       0.08181838       0.01658577      -0.05204461
Ar       3.58145730      15.93710735      15.56675315      -0.03556947       0.02951717      -0.01908443
Ar      17.03578309      16.57236329      12.65914619      -0.01413174       0.08177873       0.04512423
Ar      11.72371968      15.72178138       0.56708337      -0.00341272      -0.00544094      -0.00189226
Ar       3.18629744      10.09344814      11.26212630       0.07355041      -0.01612536       0.03323106
Ar       8.17989897      10.54724167      13.17948351       0.03910537       0.15373814      -0.05709183
Ar       5.71235887       0.73483977       8.93382621      -0.03923440      -0.02453423      -0.12680112
Ar       7.41905997      12.03578013       6.16325636       0.00450439      -0.03334364      -0.06911924
Ar       9.95140523      13.35324228      11.60767025      -0.03712306       0.04185275       0.05506477
Ar      13.71216223       6.03937332      15.00504501      -0.05424944      -0.01836877       0.01272423
