108
Lattice="17.35 0.0 0.0 0.0 17.35 0.0 0.0 0.0 17.35" Properties=species:S:1:pos:R:3:momenta:R:3 pbc="T T T"
Ar       5.90134433       1.31249725       7.55415455       0.00380427      -0.04291244       0.05408896
Ar      10.63174283       6.47477629       9.09275126      -0.05849052       0.10280828      -0.03155599
Ar      11.70382690       3.48861889       5.60435687      -0.02227474      -0.05709474      -0.09929495
Ar      17.29345942       8.28626148       5.76416551       0.02736857       0.01157295       0.00405060
Ar       7.51792483       5.08547479      10.30526266      -0.05423609      -0.06491138       0.02380268
Ar       3.82447944      16.35350668       4.99872814      -0.01341588      -0.02999253      -0.08044409
Ar      14.88259902       5.25460029       5.00431714       0.04106905      -0.02531285       0.00415187
Ar      13.87392988       4.73867600       8.59598601       0.07872929      -0.04404237      -0.00519618
Ar      11.69455872      17.22159167       4.57920030       0.03171177      -0.08354377      -0.07228070
Ar      15.90503998       5.01493389       1.63040099       0.10689857       0.07890786       0.09622061
Ar      14.20940503       8.93964666       7.74481174       0.04434731       0.11774543       0.12970669
Ar       4.35368482       4.53478135       8.20057859      -0.06474635       0.10532298       0.04158501
Ar      12.56582615       3.11983350       2.43147862       0.06095983       0.03456235      -0.01202515
Ar       8.00587516       4.96333492       6.75067970       0.02455788      -0.08333700       0.04904653
Ar       9.03212681       2.82430346       2.84695422       0.01115086      -0.00243418       0.06904329
Ar       1.51400368       4.97973540       4.06708133      -0.04461266      -0.03552088       0.01315022
Ar       6.28197896      14.70423629       7.41950169      -0.00746692       0.02217011       0.00597474
Ar      11.07629968      16.09900163       0.98540032       0.05976871      -0.01462651      -0.08087749
Ar       5.99835459       7.86620992       8.01973739      -0.06291280      -0.06546620      -0.06948562
Ar      17.32580881       7.92537425       1.99267571      -0.02987716       0.04103803       0.00873035
Ar      14.63585056       9.24354502       3.69193680       0.08710151       0.00661361      -0.11341731
Ar      12.91019132      15.52450472      10.74832936       0.06277801      -0.03750606      -0.02064655
Ar       5.56767375       3.44137130       4.54229068       0.06685355       0.04658694      -0.11665992
Ar       3.46400718       7.75505850       5.23624225       0.02530424      -0.01495582       0.11694199
Ar      15.62986166       0.77869973       1.29610985      -0.03565566       0.03183384       0.02058741
Ar       6.71251510       3.10858783       0.10422456       0.06062327       0.05486953       0.01964807
Ar       3.59612399       3.25345404      15.70008191      -0.09153547      -0.03502305       0.00524707
Ar      11.25420502      16.47389586      14.64619409      -0.08107524      -0.04225945      -0.08451931
Ar       0.16774282       2.90972658      16.26801963      -0.01359951       0.16077929      -0.04641490
Ar      14.92705096       1.34801239       4.69940914       0.01651969       0.02245284       0.02609993
Ar      10.22933146       5.36637001      17.01673808       0.04722858      -0.04130563       0.01613066
Ar      10.94979835       2.72155663       9.44846424      -0.07552955       0.03938448      -0.12678648
Ar       8.39933548       9.39759768      10.15943204      -0.00947389      -0.04477682       0.03239146
Ar       7.21194663       3.62835237      13.99862795       0.12025224      -0.04181271       0.02785894
Ar       2.28788060      16.37970774      13.35880994      -0.03863575       0.02790116      -0.02886671
Ar       1.74241500       9.20729683      11.84790176      -0.05021077       0.01269867      -0.03790842
Ar       1.96800540       6.61211388      15.34688965       0.02000626       0.03022971       0.07436199
Ar       1.96210085       1.22033260       1.42347406      -0.04355816       0.01865992       0.01203788
Ar       4.06298780       5.50661869      11.61242829       0.02891980       0.00312958       0.06152189
Ar       8.23500283       0.68196919      10.83949159      -0.02292218       0.07322766      -0.06083060
Ar       1.73598686       6.62025036       9.10194697       0.00638616      -0.00688909      -0.02486611
Ar      12.66138101       6.24421184      12.18365570      -0.06288567       0.01962405       0.01388885
Ar      14.98132654       3.34232998      12.91959392      -0.03585079       0.00865323       0.04909165
Ar       7.71681115       6.71016190       2.13358299       0.08623973       0.01378737      -0.06325762
Ar       4.24743264       6.30574355       1.94087651      -0.03688618      -0.02877984      -0.02240104
Ar      15.79778155       6.72485390      10.76759045      -0.04033458      -0.03597842       0.03144028
Ar       4.23401771      10.22011419      14.75998262      -0.00892305      -0.02166163       0.01164947
Ar       1.14374901       3.44796396      12.75363383       0.05320424      -0.01819344      -0.01157960
Ar      11.82796385       8.00389021      15.29963343      -0.03506602       0.01760194      -0.06443124
Ar       0.11578169       3.40420397       8.96893899      -0.03823728       0.05693130       0.01402107
Ar      13.62048912       4.70038212      16.29334935       0.02198287       0.01547111       0.07890957
Ar      11.30973577       2.83866434      13.05694720       0.04594585      -0.06755594       0.08804530
Ar      14.67654177      14.69985097       2.69156610       0.01627947       0.01934189       0.07183627
Ar       5.51838899      15.82192794      10.87203972      -0.00760261      -0.03416904      -0.08101870
Ar       0.65386279      11.38263950       3.07326577       0.03169166       0.02391700       0.07618093
Ar      16.75471230      13.54868268       5.85505998       0.07572908      -0.01794398       0.04080658
Ar       5.06466203       9.64537318       0.84032166      -0.02533441       0.00376181      -0.04699603
Ar       7.75357337      10.53150569       3.71100184      -0.06872936       0.03673597      -0.01163468
Ar      12.40534062      11.52433842       1.24143718       0.03758708       0.02802825       0.01237402
Ar       9.23024220       8.77207180       6.57464163       0.01625461       0.01452673       0.02487465
Ar       0.35446201      16.11496403      16.67979178       0.01823532      -0.04698388       0.02872014
Ar       6.57151433      13.79279982       3.36330289       0.05824186       0.03979811       0.03654765
Ar      10.00985047       1.78557023      16.73230572       0.03042918      -0.04042746      -0.02117443
Ar      14.92368829       8.68594909      17.12658016      -0.02993687      -0.10376447      -0.03902107
Ar       6.10109345      11.26275833       6.75685570      -0.03992741      -0.00608216       0.00858586
Ar      14.06790734      15.40975484       6.94857329      -0.00599845      -0.12345953       0.04798771
Ar       2.10401513      13.19931217      15.04052655      -0.12439736      -0.01614601       0.05173601
Ar      13.18211696      11.71989845       5.96505057      -0.04904752       0.08764611      -0.05585416
Ar       0.93214316      15.63229135       3.45002064      -0.09229577      -0.00735020      -0.05740840
Ar       9.86146727      12.78269368      16.38311231      -0.04354271      -0.03081271       0.00767873
Ar       7.82209406      17.21526376       4.42652258      -0.01579281      -0.01915380      -0.01215981
Ar       9.64025031      16.59404374       7.42795685       0.02439030      -0.04179120       0.06872333
Ar      15.82521801      12.14976050      17.27462202      -0.05024601       0.01792647      -0.07845483
Ar      16.95981029      15.89819968       9.52603917       0.06115560      -0.00857219      -0.00854045
Ar       3.35608590      12.88891363       5.23253595      -0.07386305       0.04846553      -0.00868055
Ar       9.19521711      12.68126307       6.70568993      -0.00601259       0.02063745      -0.04305899
Ar      13.31242519      11.04245728      14.63453005      -0.04781977      -0.01116924       0.02318949
Ar      14.27911702       1.23089493      15.51898298       0.09520648      -0.07414100      -0.04402770
Ar      11.33380266       7.01432470       3.92610089       0.06120709       0.08926531       0.10522883
Ar      10.38124459      13.62676745       3.43246097      -0.04057747      -0.02376147       0.02749074
Ar       2.83451509      14.03513692       1.06206835      -0.01363001      -0.00924095       0.02908614
Ar       1.90059411       1.91350040       5.65600929      -0.01234588       0.01765270       0.02595946
Ar       7.76819338      15.95205106      13.69237169      -0.03902233       0.03220139       0.04932109
Ar       0.44889840      10.03522735      15.29029650      -0.01239925      -0.03360071       0.02312624
Ar       2.13224763      13.15044293      11.09562639      -0.00429641       0.04541342      -0.11852580
Ar       2.81779218       9.73283148       7.82398420       0.02328832       0.00139986       0.07710746
Ar      11.52552502       9.66767083      11.77124268       0.01829525      -0.04124424       0.00362553
Ar      17.25409474      11.53762086       8.94735714      -0.04284364      -0.10891586      -0.01336698
Ar      13.56475457      12.09406964       9.81447292       0.03665676      -0.04062450       0.04369658
Ar       5.38998942      13.32780094      13.23834376       0.08485843       0.02968208      -0.07085254
Ar       5.72679446       7.29523858      15.77555173       0.01239813       0.02060968      -0.01466728
Ar       8.99208137       9.04676290      16.99290486      -0.03167952       0.02239355      -0.00584294
Ar      15.05617174       9.55807666      12.36855816      -0.13135883      -0.02464321       0.01243581
Ar      15.80877671      13.07455114      13.33003020       0.02895623       0.01496205       0.10265866
Ar       2.72473596      15.43523749       8.02809937      -0.06851380       0.03221997      -0.00279824
Ar      14.08762229       1.54195137       9.86800822       0.06924300       0.06327660       0.00141699
Ar       9.25280542       6.99766798      13.08037050      -0.09633181       0.04406839      -0.00886666
Ar       6.01309666      13.13444349      16.70493978      -0.02273512       0.00720527       0.00285137
Ar      13.87956986      14.83920991      16.51639396       0.01663057      -0.02699005       0.06734806
Ar       4.23666764      16.97976288      16.62726752      -0.04963442      -0.00898862      -0.03302718
Ar      15.76887900      17.07207431      12.50122683       0.01969807       0.03609995      -0.05736313
Ar       7.78275314      16.51577547       0.04433296       0.12268200      -0.01971567      -0.02572123
Ar       4.91861597      10.73905248      10.92544117       0.00905771      -0.06789468      -0.03310463
Ar       7.97647564      11.15436347      13.85721697       0.06958845      -0.07091482       0.05767010
Ar       4.46213100       2.09932755      11.40874276       0.06592365      -0.02686504      -0.01952698
Ar       8.07526052      13.34966260      10.45112245       0.02098646       0.01520191      -0.06733338
Ar      10.81400604      13.09953537      13.20827133      -0.06173741       0.01304524      -0.04780005
Ar      15.67380126       6.47646641      14.51232306       0.02168258       0.07121250      -0.02711668
