108
Lattice="17.35 0.0 0.0 0.0 17.35 0.0 0.0 0.0 17.35" Properties=species:S:1:pos:R:3:momenta:R:3 pbc="T T T"
Ar      10.31178534      16.62938818      10.49171249       0.07291409      -0.01733929       0.05277126
Ar       8.55890316      12.47705435      12.15402566      -0.01688005       0.02799168      -0.05030265
Ar      14.22255789       2.46572771       3.51198584      -0.02678679      -0.06083681       0.03151929
Ar      16.21618444       6.23170208      14.65029308       0.04059959      -0.07335831       0.12299093
Ar       4.74827182       6.61819944       6.25334636       0.04495828       0.07306588      -0.05552576
Ar       6.30335266      14.88478929       4.58831464      -0.00459391      -0.01626055       0.04004533
Ar      12.30587157       4.84839494       6.63890528      -0.03772340      -0.03002201       0.03327733
Ar       7.76025049       6.49723273       3.51191204      -0.06583860       0.06467661       0.08308448
Ar       5.79269170      14.71910084      10.49075774      -0.03015600       0.00317734       0.03106262
Ar      13.75637656       0.17717999      17.20172209      -0.01078103       0.09353472      -0.00221338
Ar      15.90233842       8.07487375       8.48818465      -0.05384465      -0.03582020       0.00619262
Ar       2.04157237       4.95222167       8.35585669      -0.01662427       0.00903581       0.00354191
Ar      11.36286113       6.60917591       0.36908755      -0.00999141       0.00422049      -0.03573648
Ar      11.30670599       2.81311165       0.42999758       0.02335984       0.05086824       0.00940437
Ar       1.03870427      10.25109234       1.93603269      -0.02537746      -0.01383845      -0.00086861
Ar       4.85902512       8.55147287       2.80329270       0.02592081       0.04650788      -0.04757636
Ar      11.20481568      12.87423160      15.01557917       0.02296601       0.01400011       0.03129650
Ar      11.97827223      11.75554672       1.29637447      -0.01788032       0.01329838       0.03256893
Ar       5.77316497      16.77573672       7.71622081      -0.01744248      -0.03090280       0.00464207
Ar       6.31162408       4.66897874      13.12889670       0.02015399      -0.07144556      -0.07514471
Ar      14.86038929       5.81608518       4.33189151      -0.02986504       0.04171007      -0.03264306
Ar       2.50811086      15.62375712      12.34363446       0.08955900       0.03404855       0.10718538
Ar      11.59806434       8.08156076       4.67470313      -0.05877630       0.07201556       0.00916450
Ar       5.99302392       0.92762238       3.71645461      -0.08300902      -0.00854066      -0.03502240
Ar       0.81992824       3.17942696      16.63201955      -0.07890444      -0.04498893       0.11544105
Ar      15.22416041      10.65797326      16.35002992      -0.01988965      -0.04254612       0.05853820
Ar       2.70638668       4.93048247      12.60079019       0.10691845      -0.02197252       0.10830409
Ar      14.92674208       0.59301925       9.43168491       0.01684537       0.03603226      -0.06283300
Ar       5.76641988      10.91101278      10.11263622       0.07793639      -0.00398566      -0.09489809
Ar      17.29074701      16.17373313       4.14687782       0.04725432      -0.06446609      -0.00561820
Ar      17.17427572      17.32757291       0.19333996       0.05540865      -0.04416132      -0.00669940
Ar       8.03157671       3.66363967       5.96242937       0.02133097       0.03181134      -0.04446649
Ar      11.70571045       7.31334426       9.40363353      -0.14326659       0.00703781       0.07467440
Ar       7.31554797      13.08980191       7.49233896       0.02608497      -0.09955191      -0.00392223
Ar       3.67816916      17.10264347      16.50597764       0.08721034       0.05252460       0.02705696
Ar      17.21776280       2.96138280      10.69419772      -0.03286768      -0.01095951      -0.03956902
Ar       5.04690180       5.43089911       9.97873081      -0.06878925       0.06967482      -0.08877496
Ar       2.11815097      13.52979997      17.11176320      -0.06621602       0.04972411      -0.02012079
Ar       5.11607529       8.46278458      13.98765986      -0.03700622      -0.05103533       0.03302185
Ar       0.36800215      15.66203304       9.20843583      -0.05535418       0.05912943      -0.04097711
Ar       4.19522308      10.18509990       6.74573447      -0.03583499       0.02970463       0.03275256
Ar       9.71101001       1.74763833      13.32571690       0.03348773      -0.03831333      -0.06799060
Ar       7.71536367       8.11627616      11.04445910       0.03184696      -0.03339070      -0.01448505
Ar       3.17925683       6.52544004      17.14416388       0.01518396      -0.04426032       0.03075597
Ar       4.73174144       3.28419529      16.53012806      -0.05643460       0.06588400       0.02844287
Ar       0.27545444      10.30619096      11.58951627       0.05035028      -0.05932061       0.02243744
Ar       6.02248356      14.85705939       1.15635841      -0.03783627      -0.03582646      -0.03115521
Ar       2.99133672      16.03076613       3.02154906      -0.00954695       0.02840653       0.00037341
Ar      13.24095712       3.07955200      14.48567124      -0.00156463       0.00242998      -0.11973699
Ar       2.76104050      15.12776593       6.86229614      -0.03465176      -0.02365438      -0.04608148
Ar      11.67599368       6.69573178      13.46050932       0.10327788      -0.07786154      -0.07022826
Ar       8.63903589       7.07718118       7.71548457       0.05544299       0.09130229       0.02901535
Ar      13.05366439      14.89825121       3.57322860       0.06241905       0.00837512      -0.05782269
Ar       5.67882637       0.53218155      13.42017306      -0.09118004      -0.11715315       0.03008693
Ar       0.39149917      12.46637711       5.68446378       0.00414411       0.00940354      -0.00095070
Ar      10.20768367       4.13514575      10.23665841      -0.03856912      -0.06995079       0.00699141
Ar       4.78010253       4.35704875       3.38663859      -0.03247894       0.06395143       0.06006946
Ar       9.71742374      13.50225548       4.61029805       0.03383333       0.00475065      -0.01890547
Ar      10.68539891       4.54416065       3.59549804       0.01186992       0.00548957      -0.11084683
Ar       8.09441540      10.00509351       5.33927000      -0.07746716       0.06103452      -0.01060895
Ar      14.64824730      14.25972539      16.19209267      -0.00202133       0.06549167      -0.08006447
Ar       8.46217835      11.77941306      16.55979136       0.04408030       0.00081360      -0.05240566
Ar      12.44921471       0.50127384       6.51817122       0.01754700       0.00639197      -0.01549500
Ar      13.74997670      14.26337895      10.96003859       0.02784787      -0.08915597       0.04552013
Ar      15.71772805       9.34655276       4.85495199       0.06297154       0.06468884      -0.02808676
Ar      15.94612058      13.41260881       1.85755133      -0.02273467       0.09216863      -0.00175027
Ar       6.75025327       6.26144289       0.07066936       0.09092599      -0.00771076      -0.01325467
Ar      12.85336280      11.83525582       5.65263159      -0.01209716       0.01373966      -0.02083496
Ar      14.63229202       3.74785787       0.26772840      -0.08047074      -0.06689080       0.06803709
Ar       1.65070962       1.43677223      13.89462365      -0.01113946       0.11963493       0.06698196
Ar       4.54622024       2.76523853       6.77100613      -0.02835265      -0.08418626       0.03602160
Ar      11.36616309      10.96737262       8.88703415       0.03792229      -0.04046439       0.01783624
Ar      11.90384263       9.42565586      15.97280093       0.03649571       0.10140071      -0.02847506
Ar       1.02101955       3.15687326       2.88936703       0.02652333      -0.06129207      -0.04757766
Ar       2.51183486       8.17513866      10.38983778      -0.00277391      -0.04503916       0.00061111
Ar      11.33112792      10.22101554      12.55569697      -0.10345769       0.08378075       0.01992130
Ar       9.52589541       4.70134510      15.46716018      -0.05950057       0.00037720      -0.01891423
Ar      16.11640763      16.66422807      12.57985302       0.10280730      -0.02527993       0.07887307
Ar       1.09722639       7.06418747       5.50275409      -0.04602725      -0.09121764      -0.04448756
Ar      10.41103729      15.57143982       0.41230497       0.01489664      -0.04425515       0.01286687
Ar      11.45956585      14.62653554       7.60072461       0.02995207       0.05723078       0.03187258
Ar       3.14869456      12.37325504       3.51528945       0.04542336      -0.01578169      -0.03885632
Ar       7.69100983       3.45548226       1.50356052      -0.00609290       0.05906125       0.08142658
Ar      17.36101774       6.37839598       1.16105788       0.06084690      -0.00635273       0.04152994
Ar       3.22669202      12.23646897      12.44177078      -0.08916987       0.09721202      -0.02422273
Ar       7.36951934       1.42964986       9.93792706       0.12461321       0.04010480      -0.01629198
Ar      14.53045762      11.72008888      13.24545472      -0.00144020      -0.08974039      -0.02650288
Ar      14.66777627       8.01003951      11.65213364       0.01727575      -0.02490001      -0.06531056
Ar       7.37212266      11.88608960       2.77954539      -0.02338625       0.01985223       0.00545347
Ar       8.55045410       8.10125979      14.85262038       0.09221610      -0.04191936      -0.02434302
Ar      15.58631732       3.88929162       7.30672272      -0.00889860      -0.08140127      -0.03297866
Ar      14.08521847       8.58334052       1.53482373      -0.04561418      -0.06173052       0.10089310
Ar       0.41819724      13.28957745      13.82694099      -0.00774509       0.00146834       0.07941673
Ar       9.04077516      15.79506605      13.88875505       0.04578084       0.05783575      -0.06304783
Ar       1.32219603       9.27486135      15.39218373       0.05226704      -0.04404011      -0.02000415
Ar       0.85884157       1.55493331       6.14073179      -0.01269033      -0.00755432       0.07485883
Ar       5.21286712      10.88226427      17.13245383      -0.05804755      -0.01391425       0.05980486
Ar       9.73181167       1.03715670       3.16363648      -0.05456040       0.04689745       0.00749759
Ar       9.43215717       9.10051501       1.51844144       0.03846955       0.03387044      -0.02514861
Ar       3.06915199       1.34986750       9.96031745       0.03612137       0.05324182       0.01852000
Ar      14.16035922       4.67851901      10.31956916      -0.04200621       0.07056331      -0.09433639
Ar       7.55402648       0.82827150      16.75928862      -0.01950511       0.03027524      -0.08986015
Ar       2.08713649      11.98146444       8.93962619      -0.09310692       0.05548127       0.06372804
Ar       5.56570344      14.42776167      14.08356172       0.05692141      -0.05338535       0.06808015
Ar      12.78073462      16.70044548      13.82850561      -0.10250517      -0.02886153       0.05606727
Ar       8.94292678      17.12840361       6.32473236       0.08287745      -0.02698731      -0.08403997
Ar      14.84269451      11.36264040       9.06548822       0.00779195      -0.12503791      -0.01733168
Ar      14.97777912      14.69310038       6.73504786       0.02292122       0.02246156      -0.02718183
