108
Lattice="17.35 0.0 0.0 0.0 17.35 0.0 0.0 0.0 17.35" Properties=species:S:1:pos:R:3:momenta:R:3 pbc="T T T"
Ar      10.25523287      16.39472646       7.76132026       0.03493290      -0.05209725      -0.04417353
Ar       6.94807971      10.38759543      11.09121446       0.00100083      -0.01588983       0.02623623
Ar      13.10862689       2.84611711       4.03527041       0.00949505       0.03390011       0.04458640
Ar      17.14406306       5.36094874      17.23035141      -0.09409525       0.00138393      -0.07875232
Ar       5.88498548       5.72368143       8.96657183      -0.07937939       0.03648349       0.06011149
Ar       7.17749970      12.72990113       3.11089091      -0.05672906       0.00905512      -0.08320494
Ar      13.22483902       1.96498687       8.25156716      -0.00579522       0.04179607      -0.00816009
Ar       7.22942183       8.64641955       6.52509250       0.02583272      -0.03988011      -0.08751770
Ar       6.56903742      15.88026052       9.29822230       0.02517723       0.05541855      -0.04306930
Ar      14.47308660       0.35457303      16.94920556       0.01786540       0.05352259       0.04353365
Ar       0.33913320       8.75804231       9.93189735      -0.09182057       0.01800337      -0.09017890
Ar      16.85285925       4.73204403       9.75691162       0.00668936      -0.07069732      -0.12847075
Ar      13.04382974       3.70998788       0.29025982       0.00720822       0.04339351       0.00662561
Ar      10.88740915       0.20544448       0.68003521       0.07967600       0.07082946       0.02110079
Ar       3.84581511      10.31543563       1.81659981      -0.03143015      -0.08173591      -0.00441363
Ar       3.72282211       7.27094263       4.95170264      -0.02743794       0.03473392       0.03585130
Ar       9.62704704      13.31896558      10.34127029       0.02619394       0.00187824      -0.04746125
Ar      12.99520073      11.68716431       2.94422785       0.00104613       0.02810365      -0.02489783
Ar       3.42566297      16.19774234       8.55479185      -0.06237066      -0.06876929      -0.03775492
Ar       6.27913718       5.03547356      15.61862123      -0.02716127      -0.02625987      -0.03550026
Ar      15.67282256       6.12629413       3.91436569       0.03586886       0.01342878       0.09424855
Ar       1.22850794      15.95969928      11.38669094       0.07108453       0.05845024       0.06998940
Ar      11.96250715       6.69832687       5.14757650       0.01331018       0.02250247       0.06552685
Ar       6.13670674       2.30332725       4.49031402       0.02742974      -0.03538341       0.05655225
Ar       0.48505675       1.25938004      15.27005145       0.10358679       0.12500908      -0.05007437
Ar       1.47830793      11.69597317      16.63550344      -0.08138697      -0.04114445       0.01817539
Ar       3.03918387       6.28415222      11.40660524       0.00510721       0.05500016      -0.04711688
Ar      13.01103534      16.83152606      10.61329544       0.11686198      -0.01083695       0.03465524
Ar       4.01579534       9.88818021       9.09355705       0.00079802       0.03942258      -0.02687078
Ar      16.63894621      16.71166478       3.49100582       0.00473877       0.03075725       0.02390199
Ar       2.18562195       0.91177259       1.41223622       0.06285592       0.00441970      -0.00707721
Ar      10.35788430       3.43735663       6.06662948       0.01401254       0.00698550      -0.03504452
Ar      14.17744741       7.55232853       8.41171902       0.04825110       0.01108170       0.00184000
Ar       4.63812081      13.25167344      10.91590598      -0.02932137      -0.01382854       0.13145440
Ar       3.90100365      16.12197011      15.47076148      -0.02922238       0.00995318      -0.06697808
Ar       0.09569194       4.96480314      13.34315854      -0.02096437      -0.04105049       0.11470559
Ar       2.40543010       2.24782498      12.29599859      -0.04972555      -0.09045269      -0.04316928
Ar       3.71714435      14.99118946       1.81941608      -0.06655464      -0.02714965      -0.05765308
Ar       3.02134023       6.19159280      15.17510810       0.03886139      -0.03168186      -0.07291638
Ar      15.75622641      15.07182296       9.79879550       0.05866964      -0.02237666       0.03255556
Ar       4.31445190      11.05580497       5.73805689      -0.05213151       0.01001855       0.05232516
Ar      10.56124212       2.77105615      14.99245305      -0.04360721       0.01578133      -0.03655088
Ar       6.55047159       6.85853453      12.48543192      -0.01665245      -0.02994167      -0.00482797
Ar       2.77441698       4.44679541       1.46240069       0.05087955      -0.07122269      -0.04625906
Ar       4.28687153       2.39601983      15.64335667       0.05552177       0.02884087       0.09402814
Ar       2.27192783      10.22828642      12.22533433       0.01796395       0.00518276       0.03250317
Ar       6.50522311      14.02877160      16.74044108      -0.07925607      -0.07379350      -0.11383985
Ar       3.03560674       0.73518102       5.43371005      -0.03031484      -0.09445263       0.00805707
Ar      14.89872916       2.92183957      14.57614537      -0.05200063       0.11365231      -0.04569900
Ar       0.26245124      16.69235423       7.30823676      -0.00053865      -0.02815328      -0.00874663
Ar       9.84294683       5.15399191      12.67823928      -0.03035690      -0.03640154      -0.06122290
Ar      10.63182406       5.98263340       9.21088321      -0.02453845       0.08785186       0.15820797
Ar      13.57675017      15.17883752       2.65438551       0.05222730      -0.03140593       0.00230021
Ar       6.09312846       3.15572067      11.88946571       0.07984366      -0.08732919       0.01890158
Ar      15.59096063      13.09487548       5.39460054      -0.02425275      -0.07643567      -0.05580235
Ar       9.69685117       2.43010101       9.41885248       0.01749204       0.05158601       0.01539236
Ar       6.49844349       5.86793921       1.84413432      -0.01538593       0.10785832       0.11194516
Ar      10.44421368      13.90674849       1.29238943      -0.08678342       0.02141166       0.10891991
Ar      10.18738940       6.08712271       1.48477772      -0.07639603       0.08646212       0.05092642
Ar       7.30975328      12.13213856       7.45059296       0.03025952       0.00011568      -0.02572329
Ar       0.25202325      15.22034042      17.10495848       0.04504255      -0.00887350       0.02811696
Ar      10.49689482      13.22461757      13.97023464       0.00193156       0.01530597      -0.01863323
Ar      10.82848604      17.31485870       4.52325977       0.05629204       0.07318783       0.06444007
Ar      12.80584177      14.03911647       7.48688008      -0.12083733      -0.06337527      -0.00055896
Ar      14.80647073       9.24737456       5.24783246      -0.01340858      -0.03509120      -0.00209065
Ar       0.25948795      12.60947513       2.58492615      -0.00983907      -0.02356995       0.00631964
Ar       7.60967886       9.59421831       1.25077198       0.01470114       0.02053379       0.02962521
Ar      10.02374549       9.40025466       3.60294173       0.06618452      -0.14864113      -0.01171157
Ar      16.19395772       3.04332213       2.55734097       0.05300479      -0.03429780      -0.05601751
Ar       5.18375632      17.24780091      12.28659299      -0.00756295       0.04199186      -0.00617498
Ar       1.91845706       2.50298273       8.12568413      -0.02003605      -0.00761896       0.10166863
Ar      11.47558529      10.66967935       8.07053517       0.05455773      -0.02202864       0.01189057
Ar      14.71149800      10.37961091      15.38065195       0.07080664      -0.03711820      -0.05697656
Ar       1.49290784       4.21284151       4.90970388       0.05326846       0.06585793       0.05665763
Ar       2.67020508       6.47841611       8.15599648       0.02455722       0.04738859      -0.04684425
Ar      11.32356906       9.44419798      12.89975496      -0.03597652      -0.05780651       0.02603886
Ar      12.27993375       6.60890833      15.64200657      -0.09009174       0.03785732      -0.04349205
Ar      15.19736379      16.24876185      13.83566601       0.02149427      -0.10565863      -0.02843918
Ar       0.91242556       9.87052169       5.39593252       0.06577718       0.00481520       0.00499133
Ar      14.00354914      13.73030600      16.39685957       0.03375604      -0.02780239       0.05804315
Ar      10.09607847      13.37674398       4.92985238      -0.02681468      -0.00044827      -0.00264597
Ar       3.16381926      14.57737791       5.32529753      -0.06080088      -0.00925915      -0.00197947
Ar       8.56484603       2.97785488       0.78815695       0.05084322       0.00093826      -0.09254391
Ar      16.96797258       9.19376633       1.91447760       0.01261926      -0.02365059       0.04567457
Ar       4.30979773      12.37053740      14.47213256       0.04225265       0.03136056      -0.04283583
Ar       5.64947550       2.19526040       8.75791912       0.05847388      -0.00284523       0.07276998
Ar      13.57708885      13.60205052      12.27397432      -0.00847480      -0.00133598      -0.01227364
Ar      15.76338084      10.64065312      12.27006736      -0.04327033       0.01325988       0.05036596
Ar       7.79170883      11.16506681      15.27604750      -0.05012273      -0.00620565       0.04675977
Ar       8.98187694       7.77672816      15.34564854       0.00498964       0.01761929       0.09960904
Ar      13.41442564       3.82945084      11.24746455      -0.00456116      -0.05225464       0.00964639
Ar      13.55335978       7.59423107       1.46636614       0.07280785       0.01288520      -0.14588780
Ar       0.55985648      13.41276268      13.59357838      -0.07032695      -0.02779015      -0.08182995
Ar       9.37459168      16.50791785      11.91942760      -0.01418090      -0.07063457      -0.01120488
Ar       0.38408962       8.65106551      15.41289601       0.03135274       0.05512548       0.01830590
Ar      15.92980610       2.97051323       6.41292503       0.01505012       0.04160895       0.10084598
Ar       4.69328076       9.07742843      14.98796740       0.02716915       0.00596009      -0.11326960
Ar       7.36653260      16.56221877       1.62728718      -0.04179547       0.01875837      -0.00099335
Ar      11.16702029      10.25729821       0.02647120      -0.02279520       0.06121078       0.03996660
Ar      15.82513289       1.49971367      10.84674623      -0.04692526      -0.00128074       0.07197716
Ar      14.95576900       6.97957360      12.72714271       0.03988134       0.03139514       0.04882649
Ar       7.71665933       0.46992060      15.04527841       0.00278634       0.01464066      -0.07909468
Ar       1.39883883      12.15175671       9.12865746      -0.04632507       0.03549038      -0.03547757
Ar       7.27292978      13.96370903      13.19652576      -0.02758991      -0.03952857       0.04035277
Ar      11.61307239      16.55949556      14.77867449      -0.06909373       0.02899191      -0.08208293
Ar       7.07311109      16.13569793       4.99881885       0.01939694       0.05711658       0.05464500
Ar      15.30647818      11.19590584       8.52034990       0.05073762      -0.01822877      -0.05129866
Ar      14.14738912      16.89035120       6.14923153      -0.01403823      -0.04385927      -0.07921039
