108
Lattice="17.35 0.0 0.0 0.0 17.35 0.0 0.0 0.0 17.35" Properties=species:S:1:pos:R:3:momenta:R:3 pbc="T T T"
Ar      10.04923501      11.96970983       2.78878094      -0.02618885      -0.02429045       0.01277186
Ar       7.38613281       9.49593753       9.55204465      -0.00606019      -0.10765470       0.00085798
Ar      11.23889936       2.50691621       4.41217089       0.07932697       0.08154059      -0.08530447
Ar      16.49327553       6.86800249       3.14062404       0.11056096      -0.00263417      -0.04569992
Ar       4.72214430       6.91349127       8.35410482      -0.05015519       0.05671279      -0.01856683
Ar       5.73174070      12.69795528       3.76555389      -0.02486277      -0.06024854       0.00192044
Ar      12.45991055       5.23801748       6.51295975      -0.10233125       0.07044325       0.09638023
Ar       7.75451792       8.99827791       4.19816626      -0.02225744      -0.03379541       0.06465141
Ar       9.92937133      15.73406426      11.06414786       0.14721636       0.02691514      -0.06101893
Ar      13.74378991       2.15221717      17.28502380       0.02935997       0.04835827       0.03036725
Ar       2.03870553       6.62514228      10.98655906      -0.07454057      -0.06199445      -0.00289923
Ar       3.80833355       3.29071236       6.82558382      -0.00169655      -0.00226353       0.02767521
Ar      10.56684228       3.03387987       0.69178542       0.01999755      -0.09510916       0.04171093
Ar      11.59277991      14.09420444      15.79307591      -0.04716368       0.04042174      -0.07286759
Ar       2.71023915      11.78486595       1.25964400      -0.01870774      -0.09011807       0.03527742
Ar       1.91518644       6.47471596       5.41734162       0.00531075      -0.00796863      -0.01575317
Ar      10.97076901       9.99222917       5.72260345      -0.06482165       0.02122355      -0.00199203
Ar      13.41633325      14.14407064       1.69809378       0.01010538       0.03521503       0.07299070
Ar       7.75581417      16.24791041       8.72295316       0.01001163       0.06296348       0.01901986
Ar       4.63361521       6.34845444      15.56751911       0.00772884      -0.06943957      -0.02135531
Ar      14.83625694       7.21316427      17.13998770      -0.02619071      -0.04339221      -0.06202707
Ar       0.85024454       0.26182653      11.54292571      -0.10663538      -0.00045397       0.03953083
Ar       9.80098555       5.64559461       3.68221922      -0.00991924       0.06241145       0.00680654
Ar       5.84424203       5.46423987       1.42541339       0.08390759       0.06078332      -0.02505650
Ar      17.09198254       4.10517540       0.19048915      -0.02315719       0.04772460       0.01684999
Ar       4.55597637      15.62038923       0.87758061       0.03750204      -0.05912995      -0.00424421
Ar       5.30125278       5.69860785      11.83471890       0.02041506      -0.02690818      -0.02076302
Ar      13.24694345      17.07947566      12.01780893       0.02264537      -0.02975345       0.04762196
Ar       3.72712975      10.09490319      10.66734794      -0.07877650      -0.00327418       0.00511607
Ar      16.40714139      13.58956570       5.85191813      -0.07193057      -0.06506820      -0.07204132
Ar       0.74065493       3.04339555       4.46373065      -0.02422398      -0.00936040      -0.07688571
Ar       7.55208724       2.50969343       5.45630763       0.04911434      -0.01242526      -0.02564098
Ar      15.02931467       8.04701755       6.33999523       0.00146681      -0.03954828      -0.06771525
Ar       6.97267834      13.52991194      10.36094164      -0.04181135       0.00044036      -0.09911762
Ar       2.76003001      16.80393504      15.02609138      -0.01980545      -0.00946770      -0.00642269
Ar      14.91436066       4.57808102      14.43968692      -0.04390227      -0.02908152       0.02239315
Ar       1.49051982       5.11072965      14.26143142       0.01007531       0.06099069       0.00101638
Ar       3.36907274      16.17401056       4.03680049      -0.00773313       0.01486901      -0.01534275
Ar       5.00433941       2.05070981      13.81775428      -0.04004054      -0.01887660      -0.00695072
Ar      14.39302304      15.10523908       9.35100676       0.06860017       0.01482893      -0.05817785
Ar       4.81374726      10.02388524       6.95107705      -0.04080115       0.04914435       0.04024247
Ar      12.00994511       6.38769198      12.98274691      -0.00884415       0.00040996      -0.01085355
Ar      16.66110965       7.57633466      13.05081179      -0.05697819       0.03160377       0.06537338
Ar       2.48354608       5.19432994       1.94903130       0.10783623      -0.02787443       0.02176130
Ar       3.08195498       3.06634431      16.57380181      -0.04936448       0.05934397       0.03805927
Ar       2.66815317       8.82137571      13.78905719       0.02839063       0.11057816       0.07664106
Ar       4.69516479      13.55129423      14.88404559      -0.00287949       0.00008209       0.02902125
Ar      16.69156605      17.12623633       5.73751775       0.04970682       0.06790337      -0.01230403
Ar      10.79256174      17.21230058      14.78107169      -0.06391140       0.04565662      -0.08129592
Ar       2.93705872       3.40467194      10.82821088      -0.02377293      -0.01119629       0.08398031
Ar       8.17279533       7.74990609      14.66548644       0.06917607      -0.00835390       0.01928958
Ar       8.74424472       6.52563386       7.14437348      -0.02306190      -0.08910258      -0.02538288
Ar      13.52149146       0.27032237       2.80071566      -0.06426509       0.11522379       0.02471342
Ar       7.08870143       3.86489205       8.84535709      -0.00395243       0.10967098      -0.11511358
Ar       1.66528636      13.17020297       8.79857330      -0.06489445      -0.04619788       0.10527943
Ar      11.30226771      15.82803710       7.31655879       0.01981418      -0.02122733       0.06092417
Ar       3.96875549       9.17482420       3.13757340      -0.01250864      -0.02372979       0.00734611
Ar      12.78570101      10.33321681       1.35478319       0.02866923      -0.12008134       0.06442737
Ar      11.14349263       6.46885629      16.58586656       0.06849931      -0.01102214      -0.05115729
Ar      11.02464801      12.92790402       9.25586405      -0.06291335      -0.01112262       0.05207609
Ar       0.88015387       0.72088959       1.34836539      -0.04650074      -0.02684895      -0.04628332
Ar      12.98221443      12.83294852      12.75643878      -0.01363193      -0.01929126      -0.02192319
Ar      10.04172296      15.93183685       2.03649200       0.07572791      -0.02559713       0.02459842
Ar      12.89047546       7.16552444       3.35096239      -0.01725793      -0.00786262       0.07535183
Ar      15.99849832      10.96314791       3.68792880       0.00755546      -0.01735354       0.03085612
Ar       2.15482219      12.68417750       4.74105933       0.07749310       0.00179176       0.00481396
Ar       5.47329778       9.96817930      16.11639221      -0.07786224       0.05311588      -0.02014140
Ar      11.21569660       8.27141363       8.83323115       0.01015401       0.02348274       0.03738313
Ar      14.70235255       3.40906416       3.89079665      -0.04012072       0.01073679      -0.09626536
Ar       5.47241986      16.30523883      12.35464470      -0.11377270       0.05005845      -0.04620457
Ar       4.65546624       2.16385403       3.20548055      -0.13793263       0.06845077       0.03270727
Ar      14.25514486       6.23417183       9.94573859       0.06571917      -0.09998565       0.06253497
Ar      16.78434879      10.27715895       0.45210734      -0.04364229       0.00686172       0.03872805
Ar      17.19074864       3.52738031       8.29394757      -0.06415037       0.03309457      -0.04692948
Ar       5.82990723       6.06386436       5.00187414       0.07479102      -0.05214738       0.10948495
Ar      13.30371061       9.53017373      11.09782728       0.01965621      -0.04506040       0.08000804
Ar      10.49270165       3.32678801      14.11460783       0.00030670       0.03370114       0.00345233
Ar      15.13330873      16.22730234      16.25979655       0.02356758       0.01665886      -0.13790527
Ar       0.71512799       9.90083033       6.31567274      -0.01178172      -0.02882727      -0.08129642
Ar      17.07299409      14.11006363       1.82384994      -0.02901520       0.06016139       0.00272060
Ar      12.58013691      13.24191440       5.31025679      -0.04442486       0.00279275       0.05685978
Ar       3.73397112       0.12577876       9.01914727       0.00868425      -0.06610488      -0.05457475
Ar       7.56302203       3.73237945      15.84432014       0.04147448      -0.12383716       0.01376187
Ar       2.39819235       8.32499183      17.21268408       0.06718873       0.00463614      -0.08316856
Ar       2.61559420      14.27172382      12.34928847       0.01993206       0.05807423      -0.07102485
Ar       5.09830239      13.87766577       6.98104302      -0.01429431      -0.01826022       0.00223165
Ar      14.65055229      12.45405636      16.18248269       0.04335755       0.01815892       0.02068378
Ar      16.08051520      15.00359375      12.81496556       0.06862942      -0.01217989      -0.05511729
Ar      10.02483977      10.93695837      11.53299951      -0.06169391       0.00114121       0.02552679
Ar      10.74714812      10.91664847      15.16425670       0.05034355       0.03321885      -0.02415879
Ar       8.94802627       6.06472228      11.13487952      -0.04394091       0.02340254       0.00915597
Ar       8.13124785       8.80381340       0.44179057       0.08469892      -0.02245072       0.03011606
Ar       1.24154698      13.27655691      15.68208220       0.01106351       0.07097912      -0.00003005
Ar       7.27974718      17.18709425      15.99397832      -0.00861962      -0.00925165       0.06542247
Ar      16.99270992      11.30428887      12.41704115       0.02237873      -0.08256466       0.04200212
Ar      13.75307329       1.80678816       7.21415993      -0.02385213      -0.08382039      -0.05023294
Ar       6.47934151      10.46780591      12.74952186       0.00737856       0.02829406      -0.03152171
Ar       6.88083897      16.26803576       3.82373308       0.00816412      -0.05770210       0.02723843
Ar      14.64295565       9.55474967      14.63038356       0.03631276       0.01691300      -0.01595240
Ar      16.97917963       1.60936421      14.89015890       0.03659464      -0.03950087       0.02615870
Ar      15.47875795       3.13628520      11.26438872      -0.02742388       0.01587419       0.04174686
Ar       6.88700218      13.26634887       0.46826875       0.02953317      -0.03190163      -0.02059048
Ar      17.22526166       9.24537099       9.73362745      -0.00687054       0.08402663       0.06959826
Ar       8.18122652      14.04702539      14.12625011       0.00851996       0.06704464      -0.03411158
Ar       7.99731380       1.24880817      12.19257841       0.03798595      -0.03347640       0.02200921
Ar       8.53098062      12.44074450       6.43630742       0.10283486       0.04471550      -0.01164443
Ar      14.53191900      11.78046333       8.51387284       0.01391190       0.07069010      -0.04485722
Ar      10.79986951       2.44603321       9.32942305       0.09845268      -0.01734552      -0.03136053
