108
Lattice="17.35 0.0 0.0 0.0 17.35 0.0 0.0 0.0 17.35" Properties=species:S:1:pos:R:3:momenta:R:3 pbc="T T T"
Ar       7.04217706       1.75492293       6.78805033       0.05634216       0.01770053       0.01071856
Ar       6.84548163       5.11577995       7.64600836       0.03961001       0.02552030      -0.00235925
Ar       9.05902196       6.78117600       4.74638885      -0.01524873      -0.04907402       0.04747268
Ar      14.74859930       8.39298713       7.89609433       0.08193864      -0.01283179      -0.00143130
Ar       5.70229905       1.75926160      10.28026655       0.09114902      -0.00590047      -0.01959100
Ar       4.87209021       1.46337393       2.50130494       0.01305284      -0.05011717      -0.03883203
Ar      15.32835825       4.34461307       4.63566826       0.02237610       0.01257809      -0.09524524
Ar      13.86257402       4.62174882      10.29689120       0.02258910      -0.11869736       0.14101349
Ar      11.98782508       3.32349115       7.36743945       0.04192899       0.08270461      -0.03802587
Ar      16.99782725       4.78522215       1.35796084       0.00118839       0.02487618      -0.07813899
Ar      10.83705275       6.77341822       8.58722440      -0.05266044      -0.04016296      -0.02426353
Ar       3.58959938       3.51396272       6.69772729      -0.02371900       0.02907074       0.04138260
Ar      14.12105580       5.92926619       0.25711683       0.01327279       0.01063572      -0.05322525
Ar       5.12512262       6.52007453       4.31207522      -0.05932935       0.01777127       0.09110297
Ar       7.76000168       3.69947534       3.49025607      -0.03560812      -0.02428170      -0.01806795
Ar       0.90234570       1.78376901       4.89882888       0.00562125      -0.00655460      -0.07335828
Ar       6.53629667      16.10415137       4.67018798      -0.10956765       0.01009818       0.03392106
Ar      12.00020689       3.24987820       3.03075042       0.00660399       0.00099144      -0.05931156
Ar       4.17190706       7.14709161       8.53530220      -0.05012664      -0.03539476       0.07821468
Ar       3.42724544       7.21368451       0.97181105       0.03967048      -0.00396964       0.06522948
Ar      13.30951191       7.22850326       4.33331594      -0.00654892       0.08522418       0.05629420
Ar      13.40620225       0.34876092       9.14204701       0.02215452       0.02468021      -0.07780728
Ar       2.61542873       4.25106406       3.01893781       0.01804673      -0.02079418       0.01883875
Ar       1.62589224       7.13001389       5.41684019      -0.02922249       0.01940041      -0.03478611
Ar      15.32764789       0.70773795       1.90751386       0.01398121       0.02232383       0.01026751
Ar       5.87537987       3.79111565       0.00419663       0.12196476      -0.08695744      -0.06830438
Ar       4.24709819       2.03215383      13.61396498      -0.04378179      -0.00758163       0.07614501
Ar       9.83253903      -0.01731379      13.17384676       0.06554930      -0.08911363       0.07734594
Ar      17.12947084       0.07644586      15.84900464       0.05417905       0.00821279       0.01401987
Ar      15.76158702       2.55012868       8.05363552       0.05902007      -0.04552592       0.03811631
Ar      11.85406455       4.73339180      15.19224840       0.00923951       0.03309140       0.05591747
Ar      10.13841250       2.53723399      10.30989459      -0.03406946       0.05439907       0.02305161
Ar       7.65999915       8.78270700       8.46503088       0.00807924       0.00108987       0.01066580
Ar       8.84672390       3.41128653      13.43437343       0.02496809      -0.05537399      -0.07927553
Ar       2.76274909      16.55793848      12.87173848       0.08048005      -0.01427943      -0.02885369
Ar       2.35844937       7.59579487      11.43158259       0.08918376      -0.00029798      -0.02502936
Ar       0.41085326       7.83947549      14.65077713       0.01053601       0.04379729       0.05352173
Ar       2.24824589       3.49060664      16.17194452      -0.01838406      -0.01666837       0.07228863
Ar       6.78243943       6.04314537      11.59799100      -0.09926891      -0.00395708       0.01967035
Ar       8.04847623      16.37517767      10.04618227       0.02155032       0.02200233       0.00246424
Ar       0.74800617       5.47809159       8.34111596       0.01481640      -0.06521632      -0.00194456
Ar      11.18763336       6.75564518      12.34583892      -0.07234661       0.03037259      -0.05516047
Ar      17.16700029       3.27272720      11.62118234      -0.04764921      -0.05368227       0.03027460
Ar       7.17732579       7.52622389       1.60492417       0.03971358       0.09491411       0.10354092
Ar       3.97058360       5.70102969      14.15694819      -0.00869767      -0.01331757      -0.06886389
Ar      16.28601357       6.70562560      11.35136675       0.01797275      -0.00735274      -0.01745022
Ar       5.11971277       9.40063279      14.98646166      -0.01938531      -0.05321237       0.05077816
Ar       3.05458834       4.12769874      11.09930557      -0.03745828      -0.02721433      -0.00354996
Ar      14.24466982       7.61019833      14.42827832      -0.03143419       0.07942191      -0.03238310
Ar       2.08685544       0.64262733       9.73606559      -0.01726569       0.04857174       0.03471930
Ar      16.11825516       4.49867529      14.95900254       0.00746579       0.12096875       0.00118681
Ar      13.23441027       2.11349480      12.61814750      -0.07055635      -0.05017008      -0.00048463
Ar      13.95827838       0.27667956       5.19778862      -0.04484204       0.02083396       0.03532812
Ar       5.83585228      12.15516547       7.85094229       0.01415827       0.03681328       0.11930688
Ar       1.34651203      11.56014507       2.51399244       0.06295219       0.01277789       0.06528775
Ar      -0.00991032      10.64400961       6.22445823      -0.07440119      -0.05202783      -0.07358826
Ar       4.76453333      10.50409256       1.42793706      -0.03868735       0.04719460      -0.08199331
Ar       5.82018135      12.51626759       4.19080738       0.04514835       0.00836375      -0.00197708
Ar      11.39420186      10.39014503       3.98422061      -0.02040283      -0.01309627      -0.00227456
Ar       8.05524713      10.47187552       5.22908981      -0.00858138       0.06321530      -0.00130255
Ar       0.80316128      14.42012784       0.48277417       0.05168972      -0.05822992      -0.06442551
Ar       7.39170380      15.35139024       1.18986201      -0.02886820       0.01351260      -0.04260903
Ar       9.01789567       1.54602022      17.00365867      -0.02031957      -0.03187784      -0.02519437
Ar      16.40023277       7.72171000       2.49012498      -0.05186326      -0.01572699      -0.05603992
Ar       3.65599280       9.69548166       5.71799100       0.04584011       0.04003832       0.06461097
Ar      13.57113736      13.15749864       6.22871310      -0.02723013       0.01438019      -0.01569386
Ar       4.10204181      13.44412670      16.87134201      -0.07295974       0.03320812      -0.02364737
Ar      11.29187130      10.37959974       8.23819881      -0.01615860       0.01930628       0.05499081
Ar      16.97516342      14.38458108       3.90246286      -0.00401171       0.02466811      -0.05216210
Ar       9.05124405      11.16556003       1.58671288      -0.05843966      -0.02438134      -0.03197766
Ar      10.01590277       0.11832218       3.35607169      -0.09781978      -0.07058815       0.02657655
Ar      10.36489958      17.24600180       7.25951612      -0.05270778      -0.08178990      -0.05562013
Ar      14.81325314      11.98879901       3.04277632       0.05421431       0.01502744      -0.04404461
Ar       0.01626086      15.94331337       7.56750864      -0.00835565      -0.03271532       0.03775536
Ar       2.97508447      13.76526400       6.58776009       0.05414340      -0.08618967      -0.11425638
Ar       8.43258479      14.41221291       7.19061541       0.10805896      -0.03030273       0.03920328
Ar      11.96176249      13.57824735       1.42779260       0.08485836      -0.03164151      -0.11884854
Ar      13.02371893       1.06376768      16.47124577       0.07138542      -0.08475977      -0.04413373
Ar      10.94880179       8.43299740       0.64206025       0.02002664      -0.00143011       0.02277255
Ar       9.59007942      13.81319260       3.89339703      -0.02443854       0.05894837      -0.06979221
Ar       3.32903997      15.32450467       2.92588623       0.05703531       0.03985607      -0.02872872
Ar       3.80224028      17.13022072       6.60838077      -0.00780864      -0.03460537       0.02486426
Ar       6.46168325      15.87518277      14.95328002       0.03729756       0.03822376      -0.07673232
Ar       1.71385406      10.42435258      16.68937003      -0.02925264       0.06745059      -0.00821692
Ar       1.37701932      11.07887272      13.07554055       0.05411903      -0.04357835       0.03998558
Ar       2.25627912      10.48337310       8.91804695      -0.03584837       0.09446689      -0.02055935
Ar      12.06370962      10.06686375      11.86951562       0.02311779       0.10170926       0.07201484
Ar      15.72640104      10.30270314      11.10202980      -0.01090357      -0.03255773      -0.06809304
Ar      14.94441428      13.80991493      10.44661590      -0.02431332       0.01458389       0.06837087
Ar       4.79035482      13.09804647      13.16298568      -0.02940629       0.02645337      -0.05169186
Ar       8.18390989       6.65424338      15.61568659      -0.03688318      -0.04286301      -0.06441294
Ar      11.75356030      10.58922231      15.20981036      -0.06254339      -0.00169374       0.07120481
Ar      14.25149079      12.55953477      13.67626481       0.01636794       0.01854432       0.07840895
Ar      17.22649321      14.28105380      14.15679127      -0.06428024      -0.02724378       0.01920687
Ar       1.55950111      13.88599175      10.49867453      -0.04372884       0.02085670       0.00001587
Ar      16.51569970      17.09660738      12.21705115       0.14125326      -0.11509972      -0.11536078
Ar       8.93492784       9.47505119      13.24998385      -0.08822559      -0.09198201       0.02046972
Ar       7.62867278      12.64301907      15.83162147       0.01680580       0.00326240      -0.06791774
Ar      14.74528336      15.01933015      17.24290379      -0.05888082       0.09562714       0.04743707
Ar       3.86558360       0.01794037      17.02142516      -0.02552725      -0.00545655      -0.01238776
Ar      13.23552705      15.64841441      13.05619654      -0.01073611       0.01021808       0.07993857
Ar      10.40305400      15.38819611      16.43410459       0.05843306       0.11038522       0.10505970
Ar       5.03818486       9.95863074      11.07413175      -0.01733887      -0.03353960      -0.01300685
Ar       8.49929385      11.58105877      10.15745125       0.11788278      -0.12485012      -0.06019497
Ar       4.66577042      15.39360041       9.71880729       0.00683266       0.04989083       0.08243084
Ar      11.47428295      13.93729362       9.39095096      -0.13866294       0.02314908      -0.02752013
Ar      10.06843271      13.56001059      12.81604075      -0.03916775       0.10465764       0.10968838
Ar      15.07078316      10.41350439      17.26609409       0.00005827      -0.02211381      -0.01294337
