108
Lattice="17.35 0.0 0.0 0.0 17.35 0.0 0.0 0.0 17.35" Properties=species:S:1:pos:R:3:momenta:R:3 pbc="T T T"
Ar       9.79533659       0.90977919       5.95424003       0.01730620      -0.02984097      -0.08994837
Ar      10.87381077       8.32675981      14.00051599      -0.07779489       0.01012104       0.06746529
Ar      12.66251213       2.88010155       4.79407279       0.00846241       0.06903325      -0.07616422
Ar       0.63921672       7.65473658       5.18782421       0.00424727       0.01764191       0.02659484
Ar       6.66799114       2.98361230      11.61432315      -0.01067203       0.04831768       0.03459596
Ar       3.02881278      14.45257971       4.66607802      -0.02845754       0.02038844       0.01811914
Ar      13.65771360       5.95682448       3.90238423      -0.04841090      -0.01634258      -0.05956911
Ar      10.62557302       7.20290483       6.24838420      -0.00412065       0.02052414       0.03231601
Ar       9.59808484      14.38603342       6.79643530       0.05518364       0.01373081      -0.09158686
Ar      15.13710131       7.57301720       1.55665533      -0.06414529       0.02655108       0.02154988
Ar      16.36525386       9.11760526       9.29259561      -0.01058788       0.04756666       0.04336280
Ar       5.17300583       3.24625368       8.17242275       0.01473478       0.03116047       0.00358421
Ar      12.92122977       4.36296423       0.57622812       0.01661512      -0.01852660       0.03338625
Ar       9.72392811       8.07996734      10.20666674       0.05531519       0.01415831      -0.02250749
Ar       3.04037066      17.07256710       0.87603109      -0.11285683      -0.10349206       0.06172613
Ar       1.91866487       3.73422526       6.39634356      -0.03750057      -0.06916835      -0.01523579
Ar      11.77487125       9.45908166       3.79502921      -0.03926220       0.04239257      -0.00903254
Ar       8.70361824      15.90976647       2.38610056       0.07252123      -0.09775692       0.05460729
Ar      10.21722303       4.94341658       3.48966888       0.05692367       0.00819651       0.02700891
Ar       1.30309026       6.41046737       1.26200842       0.01822018      -0.01734729      -0.02888923
Ar      15.16481639      10.41717592       3.47361079       0.06902003      -0.06114134       0.03589516
Ar      15.11025658      16.94035295      10.97977647       0.01220687       0.08096423      -0.03932941
Ar       7.10813651       3.64573801       5.09892752       0.02400385      -0.10329449      -0.03721967
Ar       3.87947176       6.11650280       3.56107829      -0.08289631      -0.03404335      -0.02543437
Ar      16.95666839       2.89700995       1.88014931      -0.03008055      -0.04005771       0.02135751
Ar       6.66413820      15.33252373      15.88547768      -0.04567723       0.04593322       0.05449511
Ar       6.11711570       2.80193513      15.14852109       0.01081881      -0.05133366       0.02161928
Ar      12.16018648       2.52590150      15.10623631      -0.02508050       0.14050209       0.03545464
Ar       2.83335688       1.66063304      15.12558781       0.00754712       0.04941957      -0.01375696
Ar      13.63734904      16.41721541       4.74149859      -0.02696180       0.04040551      -0.08285321
Ar       7.10246968       5.42924332       1.45170099      -0.01635205       0.04859170       0.07086198
Ar       8.45175690       3.41185260       8.73751229       0.05340027      -0.14129239      -0.00259491
Ar       4.71440773       9.75087948      10.55691876      -0.04070355       0.02031098       0.08833141
Ar       7.83883443       6.44384785      12.62966352      -0.04564771      -0.03179719       0.00762913
Ar       4.98159786      16.96742719      12.42843767       0.04451476       0.05703392       0.07786722
Ar      17.12708898       6.02909364      12.20736529       0.01371057      -0.02662609       0.01219571
Ar       0.48764074       4.85334534      15.50916823      -0.10733112      -0.02337040      -0.15268744
Ar       2.64566340       1.03011819       4.27488519       0.00217073      -0.06525235       0.06212860
Ar       3.24283325       4.07656456      12.68717140       0.02360590      -0.09169238      -0.01181362
Ar      10.96195234       0.89467531      10.15913328       0.04408976       0.01738197      -0.07003691
Ar       6.42928938       6.45859623       9.32393318       0.06064722      -0.02129506      -0.02649502
Ar      13.47113250       6.96183579      11.11297072      -0.02957133      -0.07597484       0.02112251
Ar      14.66164563       3.17223500      12.13395234       0.00771000       0.00925600       0.01709673
Ar       6.20248924       1.15238564       1.21169033       0.01028673      -0.03672233       0.00083280
Ar       3.17851347       3.25941813       1.58877095      -0.04474699      -0.00725157       0.05911158
Ar       0.79791341       8.44060833      14.69261577      -0.05708199       0.01102922       0.08863350
Ar       2.12695431      11.78100505      14.89163576       0.03767305       0.10020389      -0.08426689
Ar       0.04584091       1.53302108       8.65227846       0.01935451       0.02316717      -0.13531959
Ar      10.56726927      12.09130977      15.12492517       0.01398332       0.07767909       0.03026799
Ar       2.36819899       6.49960350       9.62254306      -0.00378464      -0.00805659      -0.07268660
Ar       9.36571653       4.76342694      15.72921292       0.04648084       0.04933130      -0.02434565
Ar      10.87903048       4.20353097      11.84914085       0.09595753       0.01866407       0.08728099
Ar      15.49281287      13.21025613      16.20518913       0.00363644       0.03196767      -0.01543104
Ar       8.12911435      12.22184470       9.69267665      -0.10201986      -0.02555284       0.01879206
Ar       1.97083376      11.91803103       7.65882983       0.05001840       0.05995737      -0.00820449
Ar      13.97826671       1.08616801       7.76931121      -0.11426382       0.01832834       0.02232234
Ar       3.56084991       9.05484599       0.39724628       0.06625962       0.00549970      -0.06120301
Ar       9.04343759      12.43799195       1.29298955      -0.03979866       0.00917292       0.10129535
Ar      13.18531429      10.03671231       0.07420580      -0.07128282      -0.11577163      -0.04879363
Ar       7.24570787       9.15070724       7.25437989       0.04333774      -0.01366434       0.01775780
Ar      13.62328305       0.88695507       0.39329930       0.08119283      -0.17532949      -0.01946161
Ar       9.05569456      11.44087142       4.97733352       0.04724301      -0.03994914      -0.02542216
Ar      10.10080873       1.79252524       0.43179068       0.06489522       0.03434342      -0.01463915
Ar      10.68890168       7.36346985       1.21447198      -0.01332149       0.00333785       0.01327044
Ar       3.43178287       8.73591538       6.94063054       0.02043804      -0.00290314      -0.04637561
Ar      17.28463041      15.66654882       6.39368483      -0.04820539      -0.02400630       0.00278582
Ar       1.03345166      14.02836108       0.60301460       0.03860934       0.06150173      -0.05786308
Ar      13.97180662       8.78433516       6.83915574       0.04086340       0.00308505      -0.05764494
Ar      16.36150827       1.55448671       5.20988065       0.02495428      -0.01269416       0.00638928
Ar       7.86566511      14.65670521      12.29710103      -0.02449032       0.07369560      -0.01282753
Ar       6.11141756      17.14324393       4.85324301       0.02994324       0.02006247       0.05635353
Ar      15.43022492      12.05259346       6.74918243       0.03339629      -0.03509666      -0.00049020
Ar      16.85659285      16.74119624       1.12716634      -0.05429713      -0.06917485       0.06069843
Ar      15.76827939       4.50403996       8.56457088      -0.01987924       0.04813780      -0.05655854
Ar       5.14338820      10.16700273       3.25111836      -0.01095815      -0.00213388       0.10903146
Ar      11.21592983      10.66798468       7.93827899       0.02551959      -0.04597712       0.01566571
Ar      12.14234481      16.62405020      13.21630827       0.12527938       0.01008715       0.02872255
Ar      15.78008130       1.87890150      14.92214724      -0.00239356      -0.00536391      -0.07789416
Ar       8.01069472       8.13282655       3.77759365       0.05668575       0.00842709      -0.01958781
Ar      12.11474458      12.95116688       4.63601024      -0.07571558       0.00972281       0.00908857
Ar      16.40350559      13.93712231       3.50349100       0.04471625       0.00183820      -0.00832092
Ar       3.63807634      16.88738737       7.59228553       0.00979028       0.01808869      -0.09817848
Ar       9.34574343       0.70236982      14.29342099      -0.04515199       0.08466515      -0.06961721
Ar       0.31133306      10.38349781       0.77965611      -0.05437553       0.07645922      -0.01587362
Ar       4.87639717      13.73328740       9.65817567       0.04743373       0.06681531       0.03859732
Ar       1.89241699      11.42235939       3.80159680      -0.08940923      -0.10718526       0.04179323
Ar      11.83364202      11.98386505      11.16934416       0.03421583       0.04107381       0.04573024
Ar      16.71933407      15.57291167      13.77737113       0.04100648       0.00179067       0.02583491
Ar      15.38165147      12.93426638      10.34511883      -0.04610809       0.04812856      -0.06411466
Ar       5.41274879      12.08370417      16.77271061       0.00419325       0.01637860       0.02927549
Ar       3.92933295       5.38573656      16.19213425      -0.08186892      -0.01320869       0.06252000
Ar       7.56236020       8.97850729      17.26200684       0.02805175      -0.00603035       0.06164965
Ar      14.15669862      10.03355596      13.83412630       0.09735958      -0.07006094      -0.07010602
Ar       5.08278651      12.65501590      12.86757532      -0.06507746       0.03803173       0.00828656
Ar       1.22912818      15.34346555       9.91347852       0.04781709       0.08056558       0.02700689
Ar      12.11881655       4.60607480       8.49635323       0.01325217      -0.01655892       0.00751056
Ar       4.17863672       8.07096785      13.50703023      -0.03804738      -0.00308020       0.05348247
Ar       5.67240776      13.90919407       2.33521940       0.01666024       0.02750359       0.06529664
Ar      12.19614016      14.62411825       1.54158394      -0.12486093      -0.01550312      -0.01641001
Ar       2.72724607      15.16695932      14.74293383       0.00701623      -0.00704093       0.03106163
Ar       1.29689242       1.15587426      12.10473845       0.07429406      -0.03737005      -0.05751741
Ar      10.65883055      15.69840983      16.19548805       0.07661583       0.00107004      -0.02013062
Ar       1.42105088      11.29695992      11.59087344       0.06876111      -0.01332924      -0.01009389
Ar       7.26894838      10.08516157      13.15556668       0.02734660       0.02999351       0.02368892
Ar       6.87652444      17.16085202       9.10639995      -0.04907145      -0.07173738      -0.00830666
Ar       6.00909716      12.43008900       6.47382957      -0.03288764       0.01785368       0.01786643
Ar      13.10045415      14.49342932       8.35199720      -0.05824096       0.08567558      -0.01505008
Ar      13.70153631       5.87216326      14.86070535      -0.05606446      -0.09251662      -0.07038243
