108
Lattice="17.35 0.0 0.0 0.0 17.35 0.0 0.0 0.0 17.35" Properties=species:S:1:pos:R:3:momenta:R:3 pbc="T T T"
Ar       9.43737928      14.78650869       3.34480134       0.03824155       0.04519429       0.02628341
Ar      10.10381459      10.42018583      11.04720165       0.09780810      -0.06589054      -0.01885234
Ar      11.25823373       1.86198258       2.91804467      -0.02098210      -0.01738366      -0.04030332
Ar       0.27222124       7.06149321       3.60191513       0.02114440       0.06183612      -0.00163567
Ar       4.86966566       4.98572835       8.89647687       0.01327035      -0.09649696      -0.06411569
Ar       6.11392247      13.35955721       3.08845802      -0.02241692      -0.00823451      -0.00677902
Ar      13.16435163       5.12345480       7.98640167      -0.10850544      -0.03207683      -0.01434684
Ar      10.82897311       9.66437392       7.38091707       0.02775259       0.02138365      -0.06918660
Ar       7.72071466      14.12671831      10.57847633       0.08693070       0.11344029       0.01207101
Ar      14.10487331       3.43942183      16.47293319       0.00533786      -0.00972301       0.09726908
Ar       0.24486560       9.18191738      11.70203331       0.05387095       0.06252760       0.04771371
Ar       2.30330379       2.48075316       8.37812705       0.04236403      -0.03207977       0.06226701
Ar      10.07633604       3.45975194      17.17865700      -0.04786159      -0.03108352      -0.05447088
Ar      10.30384017      13.09800611      13.58169979      -0.02788547       0.02356179      -0.06193787
Ar       3.35063932      15.37134796      17.07393839       0.01309619      -0.06238549      -0.01920174
Ar       2.62098368       5.40369592       5.69834968       0.00672280      -0.02589078      -0.06470281
Ar      14.56489968       7.49677400       6.16603789       0.03944305       0.02447897       0.02835157
Ar      11.20571117      13.61586596      16.90267876       0.06076835       0.03882790      -0.00916308
Ar       9.29105624       1.93083003       5.93688724      -0.01928974       0.00571806       0.06072357
Ar       4.85786667       8.67229045      16.83273324      -0.01548686       0.11683044      -0.03810299
Ar      13.18347669       4.94516544       4.21031508       0.03049588       0.06990515       0.01349393
Ar      15.94038127       1.44267262      10.22687990      -0.04568382      -0.02841082      -0.03137436
Ar       6.59602427       3.76680965       5.50013622       0.03044366      -0.03735085       0.01774790
Ar       6.55734647       5.23222694      15.72713532      -0.02553858      -0.09543206      -0.00703926
Ar       0.99666271       3.24785284       2.29856505      -0.02528464       0.00281034       0.01806016
Ar       6.47951424       1.14415309       0.37816721       0.07855986       0.01177658       0.06473258
Ar       5.46547418       2.84061737      11.45016684      -0.07573156      -0.03199821       0.14188585
Ar      11.35348320      15.97510282       9.83302175      -0.02699768       0.05725956      -0.06355824
Ar       2.13897098       9.79187306      14.99585723      -0.02255034      -0.04542944      -0.05454601
Ar      15.89832359      15.60055884       4.64219367       0.03066088      -0.01498193       0.05595401
Ar       7.31176012       4.31384513       1.84417481       0.01072223      -0.12047846      -0.06351642
Ar       9.12983064       4.44891268       8.50121048       0.00532099       0.04715146       0.03270149
Ar       0.74634816       8.57071928       7.25287136       0.03502771       0.06152519      -0.04568727
Ar       5.31577060      11.45646363      11.04572084      -0.07278280      -0.04503563      -0.00809682
Ar       1.07230450      16.30024883      13.40800347      -0.04177626      -0.02015086      -0.07859952
Ar      15.35456949       6.83288588      15.70210300       0.04609428       0.03663822       0.02301744
Ar       2.42816168       6.39615985      14.79804852       0.02840376       0.04188043       0.07281975
Ar       3.39089875       0.63370742       1.82924060      -0.05718946       0.02114238      -0.11845786
Ar       1.76957857       2.50838343      13.22492917       0.03700335       0.02158287       0.01669021
Ar      15.15557673      15.16136287       8.20296557      -0.00557482      -0.04073342       0.03917061
Ar       4.49768273       8.37978220       8.54560655       0.01204377       0.05443050      -0.01214562
Ar      13.45523461       9.02415351      13.61428245      -0.01974512      -0.06711222       0.02160633
Ar      15.96006377       5.55009316      12.52073278       0.03185965       0.01504988      -0.01911056
Ar       4.02536222       5.92353341       1.82609363      -0.01025586      -0.04260150       0.00752741
Ar       3.83994366       3.13964352      16.26749863      -0.02188007      -0.08769161       0.08375633
Ar      16.14262652      10.18916736      16.70556580       0.09264940       0.02901791       0.06397148
Ar       3.49275865      13.16794371      14.25467152       0.06508475      -0.05541525      -0.02542024
Ar       1.94528328       0.73879824       4.83554986      -0.03668073       0.00556521       0.00517707
Ar      11.00230406      16.76631159      13.21492062      -0.10632760      -0.01337129       0.06220383
Ar       1.97973126       6.20683224      11.30711657       0.03829251      -0.11877323      -0.04268343
Ar       9.99710482       8.06091839      14.87476215      -0.06424675      -0.04219274      -0.01664650
Ar       7.89562521       7.58509847       9.33025613       0.00930903       0.00476028      -0.03219191
Ar      12.73783056      15.31523469       2.45467782      -0.01570281      -0.04337951      -0.05770425
Ar       3.96234742      15.18942556      11.20137130      -0.01001064      -0.01387516       0.04652487
Ar       0.85592181      13.59412317       6.77191259       0.01922905       0.02621896      -0.02255308
Ar      12.01503694      15.49078622       6.25373424      -0.04881770      -0.07247986       0.13065834
Ar       1.90140898      11.67374734       0.79867180      -0.05739516      -0.03967487       0.10199402
Ar      11.12328500       9.04658042       3.13942178      -0.00142008       0.04719681      -0.01220045
Ar      12.34763026       6.34530362       0.94559111       0.05982586      -0.02058653      -0.04512679
Ar       7.45228692      11.57026045       7.95480283      -0.03387386       0.04997406       0.03124132
Ar       0.15338895      16.39030047       1.58681828       0.00965149       0.08328261      -0.08089632
Ar      12.16242624      12.29686002       9.06314698       0.01292259       0.01337402      -0.03839453
Ar      10.15170691      16.97293633       0.17694588       0.06459847      -0.06810989       0.01469037
Ar       9.73896349       6.06889274       4.12180439       0.00455815       0.00286595      -0.10749066
Ar       0.26945384      10.94614861       4.25506597      -0.00118353       0.09954281       0.03183051
Ar       2.54835976      13.97759192       3.28291030      -0.00679072      -0.02415625       0.03975323
Ar       5.47165877      12.16204644      17.03717079      -0.04492002       0.05097647       0.04822168
Ar      11.55243573       7.24155270      10.97812782       0.10546394      -0.02735013       0.02592723
Ar      14.68743515       1.17238047       3.09569487       0.03204226       0.08186093      -0.11121367
Ar       4.77389006       0.42210305      14.60713100      -0.02528179       0.00911819       0.03785876
Ar       5.57559967       1.29766678       8.17876809      -0.02137506      -0.04190711       0.02429234
Ar      17.11065849       5.15456900       9.03155045      -0.02146698       0.03519817       0.01818930
Ar      14.62690434       8.87431370       2.74932285      -0.05003217      -0.05431081       0.00355972
Ar      16.66686171       3.12322424       5.66508032       0.04248139       0.03367387       0.03518862
Ar       8.38557660      10.24560906       4.29385091      -0.03190263      -0.00152038       0.05633847
Ar      14.69696666       7.87607649       9.73601938      -0.01409306      -0.02027110      -0.03436614
Ar      12.73582995       4.68393864      13.45827581      -0.07226603       0.04418478      -0.04578460
Ar      13.96099973      16.93245383      16.83331570      -0.02665093      -0.01450626      -0.02019630
Ar       4.04528192       8.76688102       4.45962581      -0.04874300       0.13517462      -0.05270948
Ar      14.66502508      12.42650323       1.51066408       0.03722462       0.00448479      -0.04477201
Ar      14.31400524      12.29912024       5.64997247      -0.12841568       0.02618827      -0.04709548
Ar       4.35365623      15.94464620       6.51085455       0.03848521       0.03946485       0.03580451
Ar       8.28194791       1.79021081      14.12639244       0.05099714       0.06032529       0.02916328
Ar       1.57383125       8.13777490       0.52414169      -0.06064702       0.04393094       0.02795765
Ar       1.63110968      16.70912188       9.22048010       0.03566914      -0.12053565      -0.03022209
Ar       4.08068666      11.92847112       6.15341713       0.02791866      -0.04280167       0.01153878
Ar      13.87021742      13.52132976      14.88273219      -0.00702616       0.03283119       0.06936414
Ar      14.46247366      15.11588535      11.81402888       0.01398993      -0.04916978      -0.04647533
Ar      15.05513599      11.70854103      12.10665583      -0.00350580       0.00307368      -0.06678414
Ar       8.50035460      10.80442317       0.86458895      -0.00928590       0.03904379      -0.05956022
Ar       8.60233845       5.40297174      12.39829058       0.03512724       0.08623317      -0.10562909
Ar       8.48092990       7.42477300       0.59579555       0.00057592       0.00160543       0.05011394
Ar       0.03804759      13.74383953      15.58131398      -0.02384777       0.01836820       0.01014858
Ar       6.73777928      14.96318097      13.92707803      -0.04188924      -0.00380525      -0.01190104
Ar       0.71675448      13.78719443      11.38722646       0.03468393      -0.01207544      -0.01291471
Ar      13.30677073       1.43874735       7.15878566      -0.01070145       0.00989103      -0.06002849
Ar       5.41589754       7.37276128      12.61516283       0.03378615       0.00470135      -0.12569606
Ar       6.82508313      17.24339307       3.85665696       0.01239563       0.01793311       0.01807944
Ar      12.27915053      10.12271274      17.17364503       0.03945869      -0.07013131       0.17275414
Ar       0.50010879       1.53720007      16.13479929      -0.05586657       0.09646249      -0.00217199
Ar      14.60153845       0.99825605      13.54616396       0.06386824      -0.00667998       0.00741256
Ar       7.53263686      14.83683210      -0.00383848       0.00543918      -0.05237337      -0.02573625
Ar       2.36553229      11.24562896       8.95944840      -0.07075202      -0.03961517       0.03657468
Ar       6.57936471      10.35430962      14.12579105      -0.07535218      -0.02603003      -0.03190646
Ar       8.67011661       1.11017464      10.60303005       0.07911851      -0.03277256       0.05998686
Ar       8.34137838      15.04544359       6.92142532       0.01316801       0.02492458       0.07322382
Ar      16.07746511      11.11363102       8.75494419      -0.00713434      -0.00114461       0.05143622
Ar      11.87513746       2.27797997      10.69053284      -0.01437753      -0.02873218       0.00637937
