108
Lattice="17.35 0.0 0.0 0.0 17.35 0.0 0.0 0.0 17.35" Properties=species:S:1:pos:R:3:momenta:R:3 pbc="T T T"
Ar       5.87305512       1.19687468       7.54089271      -0.00494849       0.10823924      -0.04579172
Ar       9.35303132       6.30913008       8.82486068      -0.04748089      -0.06033584       0.07801711
Ar      12.12071268       3.36792560       5.40028358      -0.01916794       0.07516084      -0.04982224
Ar       0.18026525       8.91866905       6.20776560      -0.04097540      -0.06568697       0.00932936
Ar       7.13253071       3.70171253       9.70384145       0.01389642      -0.05940598      -0.01522389
Ar       4.17199118      16.99147147       2.51745306      -0.07365280      -0.11370167       0.00566216
Ar      15.49158735       5.67670168       4.95920887       0.08000442      -0.04514854      -0.02383066
Ar      13.82018746       4.86507060       8.46695112       0.01948203       0.04736877      -0.00798441
Ar      11.48900334      16.97734670       5.39637845      -0.01694102      -0.00824680      -0.00714211
Ar      16.23427070       4.62694071       1.07156422       0.02093884       0.05303661      -0.05699253
Ar      13.51120898       9.23791367       8.85070351       0.05592311       0.11635206      -0.04966807
Ar       3.82974573       3.88645780       7.83115630       0.01779212      -0.02497404      -0.03558746
Ar      12.82862336       3.55792384       1.57711063      -0.04700362       0.07563228      -0.02267570
Ar       8.14133612       4.16476198       6.43229222       0.07770692      -0.08094842      -0.08570614
Ar       9.36476452       3.55693647       3.07103466       0.04793679       0.05472374       0.02665018
Ar       1.66347528       5.46801734       5.02743074       0.06563426       0.13625201       0.04421047
Ar       6.59371882      14.97297217       6.15105059       0.00584647      -0.00822087      -0.05326283
Ar      11.89220292      15.90501127       1.24210496       0.08650134       0.05750153       0.05937471
Ar       5.85049301       7.31433801       8.18889203      -0.01523294       0.02172796      -0.01224012
Ar       1.09633321       8.67983648       1.76463055      -0.09598137       0.01422604       0.03070962
Ar      14.95115049       9.39033060       3.15182326      -0.00206881      -0.04482451       0.01206400
Ar      13.03319874      15.87258044      11.41625426      -0.00671316      -0.16159842       0.01025751
Ar       4.96139729       2.82192104       4.32799056      -0.02397276       0.01805594       0.09213585
Ar       4.65493091       7.83336277       4.84409458      -0.03321036       0.09240896      -0.01957406
Ar      15.50394134       0.63821483       2.19109396       0.04745890       0.03013908       0.03403433
Ar       7.00758617       2.38234414       0.27365603       0.00044072       0.01767950       0.01930336
Ar       4.38726432       2.84570855      15.27508117      -0.01426625       0.00511989      -0.08768075
Ar      10.90704551      15.82093324      15.25422677      -0.02852939      -0.02231491       0.02632071
Ar       0.51688559       2.45688799      15.84779375      -0.00747244      -0.11064429      -0.00308190
Ar      15.79119416       1.61850825       5.89643709       0.00739611       0.00274377      -0.06505911
Ar       9.48237893       5.56256620      17.32302259      -0.07721497       0.01908590       0.03099027
Ar      10.44015188       2.81092655       9.76357315       0.00872877       0.00270969      -0.06990325
Ar       8.80756440      10.15329283       9.69535412       0.06357188      -0.01512349      -0.02582654
Ar       8.59064940       3.03330794      14.06092537      -0.02827873       0.01146102      -0.03257416
Ar       2.68976514      16.41169656      12.88841771      -0.05182481      -0.04059587       0.03937283
Ar       1.53885694       8.92782433      11.93478648       0.01144050      -0.03942044       0.01528937
Ar       2.00153846       6.60591526      15.78856211      -0.00478015      -0.02719392       0.02207611
Ar       1.81156180       2.58462061       1.95569911      -0.01770462      -0.03552851      -0.00752328
Ar       4.73113351       6.76601707      12.19041934       0.06212262      -0.04713050      -0.08443770
Ar       8.35233292       0.03462439      11.59473183      -0.04042333      -0.06831015       0.10691992
Ar       2.38384148       7.11527773       8.49830350       0.03438140       0.05854598       0.00681353
Ar      11.91052296       5.89345956      11.37788691      -0.00330831       0.05575034      -0.10823266
Ar      15.12458826       3.39011374      12.14927081      -0.06264990       0.05247477      -0.04573484
Ar       7.50776883       6.49240902       3.76602656       0.00971695      -0.02509677       0.04929110
Ar       3.84544749       5.39429503       1.15569981       0.02224414       0.01584282      -0.00773773
Ar      16.53282786       6.74763974      10.37933339       0.11319558       0.13302266       0.03094806
Ar       4.48572190       9.66341834      14.87563982       0.02195257       0.05641959      -0.05551708
Ar       1.76170875       3.47596378      12.19020959       0.03946431       0.06026130       0.01922938
Ar      10.75923706       8.24922219      14.95804821       0.03373393      -0.00170778      -0.01255452
Ar       0.05791861       3.47480754       8.71651964      -0.04540754       0.01134128      -0.04051176
Ar      13.07159736       5.03643176      14.72669479      -0.02240842       0.00069143      -0.00152252
Ar      11.94025597       1.65388050      12.96942132      -0.01561324      -0.00885335       0.08770446
Ar      14.87078126      14.75687700       3.41378338       0.04685216      -0.05436520       0.04105511
Ar       5.14717522      16.35924363      10.03728218      -0.03696592       0.07318539       0.05137561
Ar       0.59594445      11.83309061       3.86389382       0.00574607      -0.05595462       0.03387570
Ar      17.14283690      13.86799227       7.31211529      -0.00142003       0.00697366       0.04275549
Ar       5.09972889      10.13667667       1.15752830      -0.03730958      -0.06255405       0.08447766
Ar       7.47958233      10.31771415       3.68858414      -0.00074204       0.01930966      -0.01405604
Ar      12.31703326      11.77126445       0.93657929      -0.04561364      -0.01615925      -0.05054324
Ar       9.37392740       8.83710250       6.11960626      -0.01416723      -0.03452304       0.01834194
Ar       0.53132069      16.56233945      16.70322406       0.02291785       0.02213614       0.02765264
Ar       6.18616253      13.42181985       2.22290633      -0.00433379       0.02970989      -0.03233226
Ar      10.33401154       1.57314359      16.93693648       0.00531761      -0.02512405       0.00353744
Ar      14.12276719       8.05770623      17.24578644      -0.01480102      -0.02668620      -0.08585347
Ar       6.42202521      10.98903328       6.86488913      -0.01977891      -0.05431020      -0.02054713
Ar      13.32909977      14.46219605       6.98452533       0.09970130      -0.06876224      -0.09409201
Ar       2.14999235      13.12836629      15.17040886      -0.05621122      -0.02315926      -0.11195702
Ar      12.23834953      10.93632710       5.14019252      -0.01622188       0.03385384      -0.00392857
Ar       1.11915332      15.62943311       4.14208355       0.03122154      -0.09592762       0.04249667
Ar       9.30262917      13.22548449      16.66459327       0.04791558      -0.00562484       0.00137973
Ar       8.02758384       0.76188324       4.74678971      -0.02883364       0.00454676      -0.03748115
Ar      10.25299578      15.99264235       9.01588858       0.03891604       0.00437759       0.02646264
Ar      16.13352321      11.78977325       0.96409475      -0.00263423       0.01684251       0.03420140
Ar      16.52838243      15.90231148       9.94899540       0.00175397       0.15865941       0.03497833
Ar       3.95946472      12.60235394       4.78268620       0.05781662      -0.01920720      -0.10948825
Ar       9.81885183      13.01036231       7.09929956       0.03776269      -0.07307859       0.09746137
Ar      11.88250278      11.63126449      14.24999261       0.00444453       0.00346469      -0.05623316
Ar      13.97461916       1.76483552      16.15239982       0.03430726       0.00658492       0.00948338
Ar      12.51825555       7.07185802       6.02099793      -0.00040533      -0.15187443       0.06993147
Ar       9.49197919      14.61388859       3.49319423      -0.07805357       0.05344060       0.07654908
Ar       2.42884096      13.59873583       1.31728982      -0.07024320       0.02577347      -0.07229606
Ar       2.24246605       1.15656856       5.38990900       0.11643084      -0.00454439      -0.05531644
Ar       6.10411273      17.20375791      14.24487987       0.01062711      -0.00310692       0.08924381
Ar       0.46293203      10.02341990      15.49542029      -0.01450164      -0.00323018       0.00852711
Ar       2.18370245      13.13035803      10.57497579      -0.01559757      -0.00438557       0.02763724
Ar       2.50924466      10.86688347       7.79489004       0.03461463       0.04374167       0.05063511
Ar      11.37075299       9.37991995      11.68506891      -0.10210955      -0.00054507       0.03676208
Ar      16.63828184      10.75084661       9.44022704       0.03772172      -0.03221086       0.00720379
Ar      12.80128860      12.74187969       9.89292373      -0.09614799      -0.05556903       0.02033213
Ar       5.09771609      13.66423575      12.70821778      -0.10237608       0.05944856      -0.07700889
Ar       6.30729719       7.05886174      16.25271251       0.04837107      -0.03317561       0.02370137
Ar       8.46175626       9.58638354      17.18440505      -0.01078211       0.08200219       0.02858667
Ar      15.19503393       9.92579720      13.18618575       0.02309232       0.00020569       0.07685041
Ar      16.08210139      13.25677538      12.42660275       0.03969729      -0.04969482       0.03283132
Ar       3.08816388      15.38093983       7.20084815       0.01686146      -0.06308345       0.03903911
Ar      14.14105124       1.28041381       9.46700173      -0.05015850      -0.03988033       0.00704238
Ar       8.51547927       6.78871174      12.43731748      -0.00425000       0.01996966      -0.05237974
Ar       5.86965254      13.17161915      16.15852798      -0.02075438       0.00657340      -0.03415254
Ar      14.71269832      14.47215647      16.01195799       0.01960992       0.03317989      -0.09271492
Ar       4.02640039      16.40379261      16.84203126      -0.02496640       0.04532031       0.07612493
Ar      16.55055598      17.10307548      13.51964999       0.02751555      -0.02894727       0.10335103
Ar       7.41365856      16.74554237       1.34692480       0.07982771      -0.07630303       0.07696867
Ar       4.96171869       9.84640045      10.19344156       0.04474650       0.08352281      -0.09447785
Ar       7.89823807      10.74094449      13.46850269      -0.01278801      -0.00284587       0.01758349
Ar       5.01478497       2.29659153      11.93745909       0.04220321       0.01267824      -0.00189898
Ar       6.88036979      13.22702413       9.74763926      -0.07784905       0.00367207      -0.06892843
Ar       9.54479781      13.73077910      11.77770980      -0.07924369       0.09530067       0.02148099
Ar      16.32217184       6.39480666      13.96193911      -0.05701176      -0.06860344       0.00246420
