108
Lattice="17.35 0.0 0.0 0.0 17.35 0.0 0.0 0.0 17.35" Properties=species:S:1:pos:R:3:momenta:R:3 pbc="T T T"
Ar       9.75415220       0.01914682       5.14874594      -0.05717856       0.06418452      -0.00436582
Ar      10.26586250       6.84588029      14.18393117       0.07418236      -0.07331594      -0.01544378
Ar      13.56696285       2.52559366       3.00870515      -0.04108897      -0.03118285      -0.01453494
Ar       0.59408821       8.10174956       4.39933898      -0.06169898       0.05379320       0.06620137
Ar       5.90510073       3.63809377      11.28010485      -0.07290834      -0.05301753       0.01297862
Ar       3.28234808      15.17891476       4.95560121       0.10504966       0.05947996      -0.00135562
Ar      12.20251644       6.06621002       4.60778789       0.09162132      -0.04498336      -0.03970650
Ar       9.31848196       7.04808123       7.89582467      -0.05615960      -0.06165643      -0.04385658
Ar       9.20377413      14.79504729       7.71111123      -0.00373856      -0.00074516       0.04356239
Ar      15.48114431       5.88968367       2.78819254      -0.04555414      -0.01329634       0.01861066
Ar      17.31611323       9.17728710      10.08260397      -0.10438378       0.00006807      -0.01890718
Ar       4.25690699       2.99018706       7.97951967       0.05321538      -0.07568678       0.07780891
Ar      13.38659471       5.49190158      16.71998759       0.06897225       0.00466238       0.01545000
Ar      10.05906699       9.63589115      11.42272254       0.00807486       0.04153709       0.03331304
Ar       3.27716264      17.24153813       1.00436680      -0.05697555       0.05102511      -0.11845317
Ar       2.46502744       5.25509995       5.15123232       0.01817780       0.09709165      -0.00387927
Ar      10.63552375       9.23598680       5.20297855      -0.04223789       0.07752744       0.06407392
Ar       9.95500509      15.27901437       1.94759396      -0.11526627      -0.02719995       0.05599275
Ar       9.26264883       3.80434895       4.46610197       0.08675800      -0.07152124       0.07909234
Ar       1.32446905       5.96244888       1.56097287      -0.05723817       0.01569891      -0.13692576
Ar      14.04965425       9.02517384       3.61219814      -0.14269375      -0.03743214       0.09223097
Ar      14.89887468       0.03836975       9.96415235      -0.03409630       0.00197155      -0.04826656
Ar       5.95421538       4.34289157       4.88955832      -0.09049679       0.01089022      -0.06283216
Ar       4.44252751       7.63140363       3.16371647       0.06922402      -0.06100720      -0.03627494
Ar      16.81097718       2.75093976       0.77355038      -0.00680835       0.05304216       0.03259920
Ar       6.11020058      15.82290856      16.26216817      -0.01174270      -0.01604575       0.04804017
Ar       6.33240509       2.61251868      16.41604120       0.05145922      -0.04692808       0.02455499
Ar      11.54093271       1.48472712      10.88549258      -0.03208596      -0.01134766      -0.09355877
Ar       2.14476395       2.16298375      15.87322971      -0.00919592      -0.06778237       0.02771557
Ar      14.13690041      15.88711541       3.42306128       0.00068926      -0.04768321      -0.03276686
Ar       7.19614303       5.50704305       1.47532766       0.01337375       0.02501826       0.02451844
Ar       8.32578354       3.09130076       7.72443804      -0.04165055      -0.05170920      -0.00250247
Ar       5.30010619       9.84289706      10.09274645      -0.01268005       0.00215112      -0.04057956
Ar       7.07076391       7.46937297      12.17495210       0.16799135       0.02989701      -0.05877516
Ar       3.91506275       0.08208644      12.38303480       0.00181953       0.01952840      -0.16095890
Ar      16.85333382       6.26152965      11.90555663      -0.01835441      -0.04190605       0.06290741
Ar      16.20805492       3.47466577      14.28513642      -0.00470633       0.05485181       0.10395177
Ar       3.44362082       1.53348165       4.72102619       0.00818619       0.02582425      -0.05810054
Ar       2.39812455       3.92509704      12.19003681      -0.00215512       0.02342284      -0.03444898
Ar      12.19234058      15.01806213      10.35847800       0.04745703      -0.02651936      -0.00949100
Ar       5.36786458       6.80787952       7.53468273      -0.05905065      -0.10190803      -0.00555142
Ar      13.85694161       8.17429310      11.55111826      -0.01715418       0.03703829       0.00454627
Ar      14.88366455       3.35816099       9.45638131       0.03680553      -0.05209111      -0.00624777
Ar       6.85193373       1.49580809       2.32182571      -0.06715607      -0.03175694       0.07562793
Ar       4.25243369       3.75082434       2.06289357       0.03370243      -0.03772603      -0.09519885
Ar       0.58794403       6.37156177      15.54667758      -0.00336902      -0.04102158       0.01400187
Ar       1.56271918      11.17022406      14.88818704      -0.01912866       0.08177549       0.01020338
Ar       0.61916077       1.98734477       8.65398788       0.03628753       0.01698059      -0.02424639
Ar       9.45985298      13.42512734      16.35819231       0.02575539       0.00705473      -0.02806649
Ar       1.74790024       5.67730030       8.80346489       0.00607297      -0.02906024      -0.05511261
Ar       9.58328261       4.13137972      16.20008372       0.03493624      -0.00579691      -0.05792848
Ar       9.35203711       4.98351587      10.74243342      -0.06558122       0.08104585      -0.00760244
Ar      16.70494298      13.43341371       0.14144246       0.01933232       0.01548008       0.08125633
Ar       8.88145522      13.19429532      11.15380655      -0.04773634       0.04122400       0.01036890
Ar       2.31430235      12.88235807       7.39966286      -0.02220515       0.00940873      -0.01931871
Ar      13.77636101       1.41463042       6.45554956       0.00575738      -0.02912705       0.08806248
Ar       3.21447108       9.13479078       0.17946783      -0.06051398       0.00173586       0.04703339
Ar      10.15204484      10.65685492       1.77704106      -0.03306188      -0.05954903       0.03952405
Ar      13.07184010       8.62448276      15.72408049       0.06047663      -0.04500245      -0.01053550
Ar       8.37424107      10.51180269       8.23182129       0.01204291       0.03192695      -0.01016060
Ar      13.20594822      16.88415509       0.03423600      -0.08263431      -0.04062644       0.02329449
Ar       8.64718228      12.81216796       4.48630215       0.01091831       0.12722331       0.03598228
Ar      10.44147631       2.16902994       1.49021540      -0.10836948       0.04088499       0.10174235
Ar      10.68694672       6.50883596       1.45199866       0.02940126       0.04200466       0.08819623
Ar       3.70299736       9.61510730       6.18720773       0.05312367       0.02957312       0.02821520
Ar      17.09532442      16.01399701       7.84224797      -0.02228405      -0.02606957       0.06774757
Ar       2.75448597      13.77061548       0.34637399      -0.00690229       0.08227760      -0.14846864
Ar      13.85465429       8.21405833       7.63347861       0.07008621      -0.08082315       0.07910731
Ar      16.99839833       1.12503227       5.12736136      -0.01040529      -0.05704444      -0.13804059
Ar       7.50689695      15.78877961      13.08757813       0.04728257       0.05498783      -0.02433107
Ar       6.12359278      16.92408662       5.91451304       0.04229298      -0.00825564      -0.02437204
Ar      16.28394599      11.63744110       7.00788050       0.04492017      -0.09796114       0.00158138
Ar       0.36426182      15.81861958       2.55749931      -0.01489935      -0.03165719      -0.04307464
Ar      15.68629050       5.38671904       6.10359067       0.02132392       0.02594180       0.02278310
Ar       5.54406109      11.07791891       3.36016022       0.00315848       0.02241141       0.02480522
Ar      12.13536433      11.51264116       8.75842072       0.02003260       0.03320356      -0.01174359
Ar      13.26400637      16.97053861      13.66844224       0.03807327       0.08401125       0.01615695
Ar      16.64125134      17.12719198      15.90307653      -0.01639099      -0.05108832      -0.02403812
Ar       7.48075598       7.72004376       4.71641527       0.03977776      -0.00756165       0.02741682
Ar      12.56694931      12.06255167       4.91980431      -0.07555636       0.07710895      -0.07741867
Ar      16.05593243      12.84188039       3.76776450       0.03114320      -0.00145909       0.07988013
Ar       3.40053449      16.70146987       8.36300448      -0.04376403       0.03570300       0.02755977
Ar       8.32042504       2.02030400      13.45462847       0.00151322       0.04944478      -0.00630220
Ar      16.80774940       9.30956885       1.09098436       0.02155279      -0.04911829      -0.02716047
Ar       5.56073197      14.67831458      10.23546823      -0.03262955       0.03190144       0.04850019
Ar       2.06822391      11.45060749       2.79773142      -0.06001844       0.07199210      -0.06626826
Ar      13.22476091      12.67090081      14.85411506       0.03524282      -0.05954947      -0.08571462
Ar      16.01232539      14.08083509      13.65802777       0.03267516       0.09997210       0.04820293
Ar      15.20797368      13.72386893       9.83120708       0.05730730       0.03115396      -0.01935386
Ar       5.88282950      11.65697740      17.17253770       0.13581538       0.04759386       0.08570996
Ar       4.33209736       5.72742311      16.16135387      -0.03140947       0.05496735       0.05093704
Ar       7.11720890       8.30641688      16.55530320       0.07717902      -0.00102729       0.02630389
Ar      15.92113962       9.48273853      13.88672325      -0.03206113       0.09074460       0.07560740
Ar       5.04360204      13.36332217      13.89750275      -0.16506614       0.03103656      -0.04513907
Ar       1.10892316      15.06698282      10.97798700      -0.01062765      -0.08773755       0.01686178
Ar      11.89421567       4.90811905       7.96274198       0.03529132       0.03578530       0.00037574
Ar       3.01459824       8.44642009      12.98958408       0.03445885      -0.00794722      -0.10807266
Ar       6.14951560      14.80867575       2.43159574       0.03297162       0.00467593       0.01386438
Ar      12.72088771      13.40216505       1.03296500       0.07099483       0.00527870       0.10880076
Ar       2.02748902      15.42238070      14.62926763       0.02386471      -0.02541850      -0.05389216
Ar       0.15926482       0.87926193      12.13797932       0.06300873      -0.04082366      -0.04027348
Ar      10.24313395      16.96027405      15.26779027       0.05801370      -0.00589100       0.01687962
Ar       2.74823584      11.88776497      11.39861846      -0.02556126      -0.00534091      -0.05785684
Ar       6.79217971      10.68956031      13.73758042       0.01841166      -0.06449216      -0.03309507
Ar       7.65832500       0.39095364      10.11131179      -0.02089907      -0.02867588      -0.07005283
Ar       5.87965980      12.67900703       6.61036318       0.05470055      -0.03767161       0.06858926
Ar      13.23870211      15.30497134       6.97833341       0.00806220      -0.08081448       0.02855234
Ar      13.02786420       4.78530150      13.14312088      -0.07448851      -0.05415407      -0.00725854
