108
Lattice="17.35 0.0 0.0 0.0 17.35 0.0 0.0 0.0 17.35" Properties=species:S:1:pos:R:3:momenta:R:3 pbc="T T T"
Ar      10.04408903      17.25171867      10.22181628      -0.07667256      -0.01761673       0.02986547
Ar       6.80171860      12.11547443      13.32781525       0.04327640      -0.07208256       0.06662125
Ar      14.63395854       1.88584295       3.62574174      -0.00617455       0.03464650       0.00404141
Ar      15.61875582       5.76130313      14.29996624      -0.06156613       0.05223763      -0.01943306
Ar       5.06895757       6.61690704       6.74143986      -0.08750921      -0.06140215      -0.01860332
Ar       6.29500643      14.06837413       4.18664229      -0.03148777      -0.03021073      -0.02043465
Ar      12.67473107       4.71197088       7.12085774      -0.04271070      -0.03558245       0.00673127
Ar       7.79047212       6.56305341       4.45384929       0.04207575      -0.06939609      -0.02388743
Ar       6.66984091      15.31749091      10.70827737      -0.04761937      -0.04577904      -0.01571605
Ar      13.51988924      16.58927538       0.87973014      -0.01768320      -0.02455086      -0.06971866
Ar      16.55236440       8.79824292       9.63828947       0.01457027      -0.09025777      -0.06392423
Ar       2.41697280       5.54175854       8.62634032       0.04425999      -0.09467478       0.06574832
Ar      13.21180740       4.98156811       1.52821863       0.00012161       0.00988313      -0.10801702
Ar      10.95179348       1.53547869       0.46645363       0.03961016       0.03392588       0.06840043
Ar       1.72138723      10.35857873       0.42055982      -0.04664764      -0.00415994      -0.01834742
Ar       3.88947354       8.57272734       2.93995825       0.05569076      -0.03107792       0.04615398
Ar      11.42031138      13.06744734      13.60686627      -0.04751442      -0.02919366       0.09090226
Ar      12.55988284      11.73215127       0.68394752       0.00213363       0.08456993      -0.06434907
Ar       4.90722407      16.26786178       7.44999915       0.06929329      -0.06925067      -0.03187991
Ar       6.21285259       4.41399107      15.21413340      -0.03523830      -0.01246875      -0.10835878
Ar      14.85890808       5.49191257       4.70019306       0.06002023       0.02098665      -0.01240102
Ar       3.02050254      14.51093212      11.79968334      -0.03770729      -0.00175459      -0.05007238
Ar      11.92122914       7.10785081       4.60952507      -0.10350817      -0.00566974      -0.00694644
Ar       5.41593167       0.61270797       4.31509310       0.01015734      -0.05567990       0.03431146
Ar       1.65127303       2.95853276      14.85709967      -0.02465106      -0.01581017       0.00905110
Ar      15.33534984       9.95687939      16.55645663      -0.02602347       0.07579317       0.00928596
Ar       1.23415064       6.21860731      11.74707736       0.01859566      -0.05770287       0.00469154
Ar      13.67403411       2.11216990       9.67740836       0.10012328       0.00309134      -0.09492710
Ar       7.19304458      10.02436872      10.02982674      -0.00332911       0.09351164      -0.08305170
Ar      16.10472585      15.15667803       3.30334129       0.02478069       0.05140444      -0.05340072
Ar      17.22374531       0.13623296       0.87143358      -0.02423225       0.05383424      -0.00355423
Ar       8.12239031       3.66298144       6.65093880       0.00825915       0.02564802       0.05754930
Ar      13.55039833       7.98342053       8.33285525       0.03651244      -0.01125987      -0.02362782
Ar       7.81026835      12.82832060       7.99220265      -0.00834207      -0.01326927       0.05965198
Ar       2.45174398      16.44616432      16.13797681      -0.09527892      -0.01733955       0.02897402
Ar      17.27096241       3.03210370      11.16517420       0.04570982       0.04401168      -0.01469876
Ar       5.37626505       5.32657299      10.86136664      -0.02136100       0.08476696      -0.01058887
Ar       1.32354179      13.85391392       0.80263168       0.15242392      -0.05069353      -0.00023797
Ar       4.97330153       8.48726805      13.31648929      -0.02847940       0.04103692      -0.04048200
Ar      17.24977007      14.00736634       9.74670507      -0.02377341      -0.04054091      -0.05817968
Ar       5.52807480       9.97920953       5.93497319       0.03279544       0.02291872      -0.03585080
Ar       9.44503448       2.84251997      13.80306659       0.00805154      -0.04976590       0.01611936
Ar       8.89426649       7.15862405      11.75715091       0.04976467      -0.01397005      -0.00883469
Ar       3.85230575       6.09678878       0.23112023       0.05741675       0.05660459       0.01636706
Ar       4.00327536       1.88528204       0.38587421       0.10193303       0.02342413      -0.03109055
Ar       1.95554341      11.07317497      11.46273825      -0.03626165       0.00180971       0.00706136
Ar       6.47020711      14.17797866      17.21322962      -0.07523060       0.00759684      -0.00434404
Ar       2.53010808      16.63706641       3.00086910      -0.00764611       0.04196542      -0.05968920
Ar      12.83545600       3.47864072      15.45601010       0.02557459      -0.08329082       0.01577560
Ar       1.25794707      15.69199372       6.68444292       0.01588571      -0.06954881      -0.07288383
Ar      11.70027113       6.06974535      13.06811133       0.09830798      -0.00229035       0.02884495
Ar       9.25279880       7.36068198       7.68960998      -0.02181518       0.06891841       0.02169635
Ar      12.71615523      14.39334515       3.48467456      -0.01203228       0.02952935      -0.04356681
Ar       6.12479333       1.80697461      13.02352785      -0.07096412      -0.07607547      -0.07182582
Ar      16.12758391      13.02237749       6.27168254       0.08285979       0.03170709       0.08686310
Ar       9.49594114       4.11592839      10.06725349      -0.00729680       0.06605548      -0.00873201
Ar       4.86112873       4.57486058       3.42768021      -0.04270144       0.01478291       0.01586655
Ar       9.40595368      13.02468754       2.48689219      -0.00748502       0.04809367       0.06140464
Ar      10.28473111       4.05595068       3.67179618      -0.02423347      -0.07567522       0.03049359
Ar       8.86313930      10.56417694       5.44123147       0.03104830      -0.13134364      -0.04834379
Ar      14.12281772      14.08625072      15.67362499       0.01772995       0.00027200       0.08360432
Ar       8.86711527      11.57175379      16.07093306      -0.03253952       0.07276954      -0.05047415
Ar      11.01391053       0.67824741       5.24568696      -0.02602220       0.04879558       0.00160736
Ar      13.99603190      15.89866884      10.43817636       0.03057023      -0.03034988      -0.00014469
Ar      16.01393450       9.26873563       5.68881535       0.08275071       0.00274828      -0.03452199
Ar      15.45729237      11.87842519       2.53612737      -0.06020123       0.13016202       0.06196845
Ar       7.01214711       7.09176833       1.07021115       0.05221642       0.03634981       0.01296724
Ar      12.27257248      10.84626854       4.35629234       0.04242472      -0.05785517      -0.00670941
Ar      15.84428868       3.09404219      17.14828513       0.02732535       0.04062332       0.00198489
Ar       2.83879333       0.81049963      12.56983622      -0.06770570       0.02215882       0.04014032
Ar       4.69362034       3.12303070       6.76017885       0.07664713       0.10166405       0.02596801
Ar      10.73857536      11.15901659       8.16481392      -0.01519500      -0.03003491       0.07052919
Ar      11.88485729       9.40870219      15.38117433      -0.02094304       0.02122819       0.04936148
Ar       1.02134253       3.97799007       3.76052997      -0.04738181       0.03602892      -0.05236756
Ar       3.67934060       8.79145763       9.72542269      -0.08656294       0.07407097      -0.03832646
Ar      11.77846581       9.76583571      11.66665458       0.00405585      -0.02711088       0.07021554
Ar       9.82203539       5.03532346      16.89102871      -0.00436406       0.03131202      -0.04047623
Ar      16.42790399      17.30520341      12.68990816      -0.01516805      -0.11997915      -0.03741257
Ar       2.04371619       9.26014610       6.30283440      -0.01986970       0.01193670      -0.01613689
Ar      10.48808390      15.43454808      16.84015665       0.08891709       0.06851981       0.05936787
Ar      10.95496443      14.89518317       7.38561111      -0.11408804      -0.04647889       0.03736853
Ar       2.28373804      12.59299804       4.56070387       0.04542594       0.01884515      -0.02948773
Ar       7.69725876       2.87251521       1.61143842       0.02353219       0.02099409       0.00452869
Ar      17.05869743       6.26869100       0.97887379      -0.15412483      -0.05299419       0.00518266
Ar       3.33839328      12.95165022      15.33555798      -0.02467529       0.06087197      -0.07749777
Ar       6.66213635       1.41102529       9.55079813       0.06593003      -0.08147944      -0.01501120
Ar      14.78522129      12.68117039      12.50865409       0.04590058      -0.05911750      -0.03467538
Ar      15.12306951       8.78572083      12.78914981      -0.00979617       0.09891836      -0.02294960
Ar       6.87613163      10.75992836       2.07381010       0.08142920      -0.01312606      -0.01284174
Ar       8.06131947       7.72848093      15.13743886      -0.00877422       0.03118468       0.02507775
Ar      16.41106293       5.38373198       7.86138907      -0.02380963       0.00601251       0.06776655
Ar      14.65226039       8.32059374       2.34860535      -0.06441589      -0.04217815       0.00425661
Ar       0.18248002      14.38344990      14.58320154       0.01956921      -0.01847042       0.03646610
Ar       8.86435406      15.63853553      13.38345950      -0.07822983      -0.02121377       0.07466359
Ar       1.08877330       9.10523485      14.05929719      -0.05988409       0.02520520      -0.05411386
Ar      16.78387497       1.62198801       6.28277347      -0.01487151      -0.04198212       0.05288110
Ar       5.15132658       9.91549399      16.39048844      -0.00974086       0.05170467      -0.04528834
Ar       8.49829402      16.62359717       2.40200932       0.07198033      -0.09239299       0.05921016
Ar      10.13220194       8.55918554       1.55475579       0.04250763      -0.01158449       0.02001632
Ar       2.30454000       1.02270894       8.96119802       0.08018540       0.05491222       0.05609056
Ar      14.49191336       5.82576080      10.54213889      -0.01843281      -0.09349268      -0.00944912
Ar       7.66297438       0.28358709      16.42099921       0.08376522       0.11913015       0.01173154
Ar       3.94089831      12.77664965       7.85582806      -0.00560860       0.01388131      -0.05017253
Ar       5.28217508      15.85740379      14.11115161       0.02443017      -0.04118533       0.05059832
Ar      13.46083307       0.05497591      14.31703071      -0.06046216       0.05772543       0.05424122
Ar       8.14922584      17.05602621       6.51817802      -0.02589702      -0.00357623       0.09366155
Ar      14.17221170      12.21830235       8.97397361      -0.06193188       0.09348101       0.03538955
Ar      14.34153348      15.96200809       6.70099889       0.05532718      -0.13027428      -0.02126072
