108
Lattice="17.35 0.0 0.0 0.0 17.35 0.0 0.0 0.0 17.35" Properties=species:S:1:pos:R:3:momenta:R:3 pbc="T T T"
Ar      10.15558485      16.66949482       5.56186132       0.02939663      -0.08448007       0.01212585
Ar      10.10710867       7.41295950      14.03212538       0.01620202       0.05565819       0.00604485
Ar      13.03968621       2.97282559       3.62529473      -0.00610620       0.03709823      -0.01549537
Ar       0.16994596       8.11253566       4.13047910       0.01939558      -0.02821251       0.10151637
Ar       5.85627285       3.33266079      11.84717750       0.01418065      -0.00528858      -0.00600404
Ar       3.07969465      15.21739845       4.24729480       0.01899935       0.04420261      -0.02662608
Ar      13.19378402       6.10673044       5.64496034      -0.01218297       0.08125197       0.00765482
Ar       8.60268865       7.26163310       7.57249842      -0.03659999       0.00420488       0.00356039
Ar      10.24602045      14.40702424       8.62598665      -0.00712129       0.00040547      -0.00871806
Ar      15.08571246       5.95801034       2.26473432      -0.06156955      -0.13762407      -0.02808531
Ar      16.43035079       9.28348115      10.58753593       0.00274650       0.04626897      -0.05466164
Ar       4.57280969       2.09494151       7.97905667      -0.00487814      -0.05032959       0.03913927
Ar      13.37845469       3.35782794      16.92631206      -0.06222756      -0.08938503      -0.04400485
Ar      10.13310774      10.91031594      11.68132145      -0.01056655       0.08931490       0.01820707
Ar       3.62201409      17.29112004       1.58356132      -0.00024972       0.05525869      -0.03181806
Ar       2.73809344       5.66838589       4.84560551      -0.06149956       0.01544961      -0.03458175
Ar      11.40308771       9.49133947       6.02266495       0.08975512      -0.04985666       0.04296833
Ar       9.84718991      14.39396706       1.87049630      -0.02374253       0.04333146      -0.04110441
Ar       9.66698591       3.95374590       4.52921853       0.05163483      -0.12063560       0.01154791
Ar       1.78975796       6.90618250       0.43951312       0.02715815       0.01773306      -0.07799378
Ar      13.78164272       9.55308407       3.46579668       0.01434115      -0.06445356      -0.08233428
Ar      14.40223596      16.60113656       9.96618435      -0.07686333       0.03848031      -0.01097676
Ar       6.34695316       4.92348129       5.15754227       0.01186410       0.08465039      -0.00943620
Ar       4.85861233       7.81493389       1.87104031       0.01686589       0.02870929      -0.02239712
Ar       0.66428288       3.99883149       1.45840245       0.09692396      -0.01620299       0.03421153
Ar       6.84006322      16.27161535      17.24358460      -0.00870354       0.09325746       0.00298304
Ar       6.47003392       2.45100582      16.77749614      -0.04864173       0.01690124       0.08252125
Ar      10.92954626       0.72547373       9.14192713      -0.01157069       0.01343458       0.02945993
Ar       3.65127000       3.96116540      14.80923931       0.08195163       0.05977590      -0.01033631
Ar      14.23958915      16.24451318       4.04534445      -0.05530138      -0.00076102      -0.04764703
Ar       7.89155546       4.84402027       1.37976024       0.06965675      -0.01114587       0.06292154
Ar       7.72461536       3.74294985       8.15872926      -0.08823965      -0.00234499       0.00666121
Ar       4.90072344       9.33563865       8.52907071      -0.08532918      -0.07083530       0.02105136
Ar       7.39100551       8.90623117      11.39540214      -0.04648470       0.03653006      -0.06249167
Ar       3.67658381       0.43845401      11.22199420      -0.07051224      -0.04614366      -0.04465163
Ar      15.65885339       6.15566804      13.14839160      -0.04867385      -0.03726561       0.02951914
Ar      16.98000352       3.66046962      15.26138823       0.08422804       0.14549220       0.01798720
Ar       2.79623788       1.79936521       4.40147750       0.02180948      -0.00033207       0.08504072
Ar       1.92926538       4.35080814      10.24332966      -0.01583238       0.02532104      -0.12322930
Ar      11.62011372      14.86144678      11.56231474       0.04151829       0.03110238      -0.01894781
Ar       4.62180972       5.96202758       8.27407480      -0.01265828      -0.03786994      -0.08322541
Ar      13.13494426       8.60735661      12.22607174       0.04834929      -0.02339825       0.04924322
Ar      15.71387804       3.42200594      10.18643124       0.03075578       0.11018418       0.09628571
Ar       6.50324907       1.48913540       3.16454965      -0.01000624       0.00845124       0.02892554
Ar       4.50910666       4.05312770       2.02703568       0.00407815       0.06976890       0.06241817
Ar       1.70430258       7.53194134      13.94753335      -0.04173576      -0.05226933       0.00197949
Ar       1.84690130      12.70138317      14.03506455       0.05540742      -0.01407163       0.12636386
Ar       0.35699076       1.07988600       8.23546839       0.02428320      -0.04821287       0.01148063
Ar       9.25252430      13.96033127      15.52648588      -0.03334048      -0.00547099       0.05018198
Ar       0.90288786       8.09291016       7.88243396       0.03487798       0.07210475      -0.01992420
Ar       9.47794242       4.06739931      15.38107286      -0.02183994      -0.08311693      -0.03389098
Ar       8.97856387       5.28464179      11.48801944      -0.10534878      -0.00747034      -0.01155678
Ar      15.30661349      12.84179304      17.15002686      -0.10613626       0.11758771       0.01702247
Ar       8.00356502      13.65393594      11.45560533       0.01432425       0.07407275      -0.03199594
Ar       1.10995290      12.56191858       6.54596362       0.03404602      -0.02255858      -0.01897610
Ar      13.79572393       1.29863069       6.83579133       0.06105485      -0.01421992       0.03091728
Ar       2.43935656      10.38011805      16.73438909      -0.01869702       0.05947268      -0.02075460
Ar      10.11688936      10.53187477       2.93471428       0.05878208      -0.01818941       0.00842836
Ar      12.91988379       7.86870371      16.14397006       0.13866433      -0.05047517      -0.00550098
Ar       8.15892915      10.80270827       8.18891796       0.04295805      -0.08426660       0.05376112
Ar      12.57163857      16.36499253       0.78636075      -0.06565151      -0.04085575      -0.04690749
Ar       8.61441688      12.70173920       5.45406366       0.05817443      -0.07136865      -0.01926476
Ar      10.08317802       1.51961201       1.91537057       0.02262561      -0.00628241      -0.06036513
Ar      11.65336285       6.80890157       2.61428508      -0.01498348      -0.02208064       0.02546814
Ar       3.30049108       9.53282281       5.30306270       0.01627892      -0.03764329      -0.06610984
Ar      17.13192812      15.80653784       5.97261971       0.05416130       0.00967741       0.04494339
Ar       3.76466060      13.89540948       0.78441463      -0.01159893       0.06057727       0.04395783
Ar      13.90276701       7.43496583       8.80185059       0.01388906      -0.06131655       0.15726266
Ar      16.60206990       1.61472794       3.61207704       0.01092508      -0.07434644      -0.03598925
Ar       6.19168906       0.57557622      13.73985858       0.00583218       0.03209749      -0.03095114
Ar       6.65314757      16.37983376       6.68775630      -0.12894684       0.01330488       0.03193506
Ar      15.44573570      10.10845356       6.82735020      -0.08105231      -0.05999882      -0.04556213
Ar       0.45234698      15.49267341       1.95536813       0.04827740       0.09821322       0.00520549
Ar      16.45408560       5.22112022       6.51589065       0.00043336      -0.03807031      -0.03827433
Ar       5.89324733      10.76803491       3.48691902       0.11307648       0.11206330      -0.02841046
Ar      12.41307798      10.68234962       9.07586219       0.03958991       0.01910959       0.01427268
Ar      12.94729785       0.14840859      14.31744330       0.02308912       0.01107555       0.03413497
Ar      15.71958199      16.91468037      16.93640707       0.00331445       0.02547666       0.11959826
Ar       7.98201194       7.83930329       4.01482018      -0.05483007      -0.05906757       0.09508756
Ar      12.52682832      12.77702044       4.18932438       0.02249922      -0.03864229      -0.00027096
Ar      16.20493075      12.45843312       3.95093405       0.07364934      -0.08810517      -0.03171470
Ar       3.24476765      15.76533257       7.90008365       0.01818901       0.01420122       0.07778377
Ar       9.44904930       1.34902392      12.02261622      -0.01728713      -0.03710332      -0.00401208
Ar      16.05793052       9.52179992       0.72062890       0.01127065      -0.03892749       0.03666777
Ar       4.42571912      14.30798363      10.94014903      -0.01118946      -0.05118248       0.11235218
Ar       2.34062294      11.71745689       3.13276581      -0.04292974       0.03098504      -0.07114511
Ar      12.82303784      12.07516155      14.00595482      -0.00469186       0.00059468      -0.02943313
Ar      15.76385346      14.68490445      13.65443697      -0.06735081      -0.02728878      -0.11602379
Ar      14.94086190      12.75127028      10.78492918      -0.08563613       0.05715102       0.01601394
Ar       7.26303734      11.75266218       0.61115505      -0.04248077       0.02287520       0.08682136
Ar       5.68332069       7.12745805      15.07451308       0.09398830       0.03086988      -0.03088649
Ar       8.89798908       8.42412805       0.33392311      -0.07510619       0.03147701      -0.08721300
Ar      16.01808122      10.16143401      14.32571822      -0.01749554       0.02513233       0.01135152
Ar       6.09872369      13.27176941      14.70832488      -0.05061609       0.02498953       0.02109717
Ar       0.72238643      14.84161801      10.86053119       0.06444418      -0.00772465      -0.10740462
Ar      11.56550539       4.43540497       8.18522732       0.06045561      -0.01304710      -0.02273545
Ar       4.25464834       7.45758335      11.36893379       0.12165618       0.01685939      -0.10172791
Ar       6.58445613      14.20742582       3.05309105       0.02263714      -0.01042956       0.01105312
Ar      11.87978295      11.99468413      17.30765855      -0.04437729      -0.00451768       0.00094758
Ar       3.40639982      15.93409741      15.04659245      -0.02811600      -0.05394722      -0.01926305
Ar      16.99031761       0.79770986      12.90378391      -0.06265431      -0.08728614       0.05654108
Ar       9.53877881       0.44634124      15.95864560      -0.15862060       0.07680332      -0.01021858
Ar       2.58014549      11.19573911      10.46320216      -0.00792845      -0.04881586      -0.10814409
Ar       8.01886879      10.56764468      14.66405546       0.01077735       0.00870257       0.04245037
Ar       7.03107897      16.92559366      10.01262857      -0.00224166      -0.04672323       0.00671932
Ar       4.74445538      12.69649785       6.40658977       0.01059028       0.01004800      -0.05289123
Ar      13.76696793      14.20133955       7.36632021       0.08887797      -0.01606129      -0.00165247
Ar      12.73161582       2.82635645      11.98228800       0.00353265       0.00996020      -0.00985718
