108
Lattice="17.35 0.0 0.0 0.0 17.35 0.0 0.0 0.0 17.35" Properties=species:S:1:pos:R:3:momenta:R:3 pbc="T T T"
Ar       9.78262469      16.89116317       7.95550192      -0.05150625       0.02064992      -0.10986726
Ar       7.00983802      10.31334273      11.54223082       0.00168619      -0.03705988       0.00970277
Ar      14.02046575       2.49842170       3.58445260       0.00934568      -0.01411416      -0.07451972
Ar      16.01309373       5.89473680      17.28122298      -0.08097990      -0.01669578      -0.02289694
Ar       6.19171210       5.69957562       7.78025980      -0.00731427       0.00759257      -0.00349329
Ar       6.10153430      13.47437564       2.97860873      -0.03275065      -0.09354325       0.04938025
Ar      12.48778875       2.72596075       7.56098151      -0.03740931       0.01743730       0.02601852
Ar       7.24669210       7.96994674       5.20810310      -0.05434791      -0.08100505      -0.06430837
Ar       6.80218640      15.07227501       9.36755934       0.01940213       0.04690139      -0.01754723
Ar      15.39991204       1.00752861       0.32723059       0.09733096      -0.07305409       0.05416529
Ar       0.46613120       8.41166564       8.99266527      -0.06894261      -0.02689815      -0.03198710
Ar      16.66067638       4.43439396       9.43011188      -0.02449430      -0.07918132      -0.01935583
Ar      12.89417161       3.75870428       0.57516352      -0.05894154       0.03410543      -0.05925319
Ar      10.92977796       0.34325350       0.66397100      -0.05092589       0.04285334       0.04308521
Ar       3.16979603      10.07957602       0.50382203      -0.02560641      -0.08160746       0.01068191
Ar       2.97939718       7.28472544       4.02033909       0.00852808      -0.08827295      -0.06474772
Ar       9.51052546      13.07410603      10.24559912       0.05728420       0.01617018       0.01674070
Ar      13.33180792      12.21295560       1.86818755      -0.05433582       0.02537900       0.00867617
Ar       3.56404688      16.14419314       8.25983788      -0.05652991      -0.02252442       0.03463431
Ar       7.40241327       4.99428709      16.57198673      -0.01282219       0.06140228       0.11039685
Ar      17.10640718       6.02338442       5.66690563       0.06592299      -0.03455905       0.05774717
Ar       1.71946760      15.35330135      11.35965079       0.01358967      -0.05394748      -0.04196209
Ar      12.30187989       6.24440684       5.89338027      -0.06355597       0.02577590      -0.01067086
Ar       6.15481970       2.48050284       4.17733217       0.04622046       0.01249305       0.00774001
Ar       1.01805368       2.01102507      15.68781416       0.06348665      -0.02546489      -0.00223190
Ar      16.79168970      10.43441211      16.68776573      -0.11826092       0.00339721       0.05270762
Ar       2.30396331       6.55366249      11.34252391      -0.06712269       0.01890456      -0.02498027
Ar      13.60958111      17.25990038      10.75631235       0.03662302       0.07130747       0.00596586
Ar       4.66829924       9.00898635       9.12659286       0.02356676      -0.02932570      -0.05452020
Ar      17.01540558      16.28172874       3.15070900       0.00416368       0.04852288       0.01382900
Ar       2.72781404       0.46465906       1.10698083      -0.10041967       0.02024412      -0.04181146
Ar       8.80930813       4.31573650       6.27134952       0.02354160       0.00791502      -0.15567487
Ar      13.64352992       8.48213453       9.68491309      -0.09364529       0.05722321      -0.00130565
Ar       4.44077110      12.70499225      10.95014862       0.05259111       0.04799097      -0.01225847
Ar       3.41972905      16.39777243      14.87107689      -0.02904676       0.01351969      -0.06310071
Ar       0.21866442       4.78335264      13.61169190      -0.00689468       0.05425819      -0.00661176
Ar       3.30639687       2.95785028      11.87912045       0.05120662       0.01500618      -0.04030519
Ar       2.99001612      13.81437905       1.07317570      -0.05075935       0.05528090       0.08393424
Ar       3.48365835       5.40096512      14.76407009       0.02511885      -0.02012830      -0.12123689
Ar      15.91258574      13.95103470      10.77272003       0.00765406      -0.08784539       0.03909580
Ar       4.07043903      10.97791569       5.96449997      -0.06230619      -0.03080767       0.01197346
Ar      10.50411779       2.87713919      15.38873667       0.12026386       0.06293006       0.07596677
Ar       5.68400639       7.10356435      12.00564363      -0.00685019      -0.08011679      -0.01486274
Ar       3.53194397       5.21236429       1.35703000      -0.04080063       0.01699968       0.03297455
Ar       5.71605268       1.79362729      16.18295988      -0.01221761      -0.08421796       0.02514011
Ar       1.79489235      10.44676987      12.31154341       0.01634186       0.03349181      -0.00698202
Ar       6.06857850      14.75108066      16.95521710       0.04014948       0.07042384      -0.02464250
Ar       3.86360143      17.14360848       4.88893068       0.06034487      -0.03455663      -0.00179044
Ar      13.79920786       2.16276620      13.55606165      -0.06750272       0.09970978      -0.14110063
Ar      16.99927361      15.89897420       7.76859638       0.01712560       0.01249690       0.02368312
Ar      10.04124868       5.61159292      12.84324606       0.07862282       0.03359543      -0.07409775
Ar       9.13407974       7.41109602       9.33218955      -0.11510809       0.06579504      -0.06467159
Ar      13.52803946      15.83912109       2.32969209      -0.02781965      -0.01749773       0.01061394
Ar       7.62585542       2.48005941      13.20166805       0.02820169       0.00667595       0.02776892
Ar      15.10595298      13.77177181       5.52319811      -0.02105841      -0.04768827      -0.02117557
Ar       9.77773173       3.75029140       9.81063245       0.09038909       0.04325667       0.03648424
Ar       6.81987901       5.49677629       2.64955835      -0.03629500       0.05937023       0.08536710
Ar       9.39966351      14.76383354       1.15153776      -0.02136149      -0.09315437       0.00912166
Ar      10.07834747       6.56494646       2.11897484      -0.02311944       0.02721495       0.02494158
Ar       8.08501448      10.46912535       7.35777337       0.07232582      -0.12376389       0.01515476
Ar      17.33151754      15.09554829      17.04239521      -0.01257767       0.04906836      -0.00103840
Ar      10.73649880      13.00484213      14.80538856      -0.11309482      -0.00644098       0.03817149
Ar      10.01315388       0.94321053       4.42162242       0.03214770      -0.02930517       0.09851251
Ar      13.02199776      14.64826074       8.34457105      -0.00368497       0.13132164       0.01044869
Ar      14.22312393       9.00891469       5.39260163       0.02923736       0.09893507       0.12185329
Ar      16.87759881      11.95636735       2.56875320       0.05560648      -0.01017280      -0.00691219
Ar       7.23530400      10.35456240       2.08144764      -0.04987266       0.00532788      -0.01634330
Ar      10.32162822      10.02244508       3.62800148      -0.00912454       0.06442302      -0.01047247
Ar       0.45322118       3.44971526       2.23704239      -0.03983903      -0.01254211       0.03092498
Ar       4.89469759      17.21433540      11.82877014       0.09813214      -0.01821282      -0.03690376
Ar       2.58550000       2.16534640       8.54708675       0.02553235      -0.08515376       0.07507579
Ar      11.55193235      11.09282582       7.81248923      -0.02945455       0.04401945       0.04131270
Ar      13.25765465      10.15410509      14.92551138      -0.13604868       0.01056451      -0.02235861
Ar       2.99410686       3.83672942       4.94783125       0.01340209      -0.03265905       0.02237874
Ar       2.70220996       6.10883408       7.63259038       0.07346674       0.13035026       0.00456802
Ar      10.74501635      10.01328065      12.51223937       0.01951951       0.05112212      -0.05685026
Ar      12.27888170       7.09856176      16.26098327      -0.04794230       0.04868538      -0.00513799
Ar      16.10091877      16.82834787      13.86683895       0.10444644       0.03106754      -0.01652665
Ar       0.38464237       9.95983972       5.26713612       0.07399963       0.04664029       0.04423923
Ar      14.08972377      13.77061406      16.03516657      -0.02610957      -0.03327702      -0.04408876
Ar      10.98019126      13.70135831       5.02715547       0.08591915       0.03188429      -0.02285974
Ar       2.19999590      13.69658619       4.87060345      -0.01043981      -0.12755565      -0.06069573
Ar       9.08203291       2.98885662       1.83447055       0.02070727       0.04254129      -0.02674877
Ar       0.16065398       8.05325404       1.85506266       0.02678206      -0.01149759      -0.03046256
Ar       3.71142969      12.63235357      14.69201091      -0.03856338      -0.01123677      -0.00735688
Ar       6.39830883       1.36201276       8.49870342       0.06136616      -0.02397691       0.00331464
Ar      12.71249386      12.93470064      11.75120943      -0.02698021      -0.01073534       0.05835950
Ar      15.79256383      10.42489660      11.74749012       0.07683458       0.00690567       0.01782780
Ar       7.09895312      11.35978877      15.70137910      -0.03396590       0.03674926       0.04378132
Ar       8.71670690       8.18372938      15.53727452       0.00560621      -0.01394189      -0.00846111
Ar      13.49866073       4.37904291      10.59634076       0.03425493      -0.01713790       0.00369800
Ar      13.11955213       8.68509831       1.74811709       0.11551154       0.14152914      -0.02442621
Ar      17.09099057      13.38301513      14.00669263       0.03096348      -0.05949409       0.01888761
Ar       9.07730562      17.08859986      11.43717667       0.00518765       0.03417513       0.06175153
Ar       0.73724787       8.00841367      14.60530621      -0.07254790      -0.06846216      -0.03242561
Ar      17.35815066       1.80902067       5.39019910       0.09094518      -0.07134344      -0.03064471
Ar       4.52727886       8.76441246      14.69623479       0.05826393      -0.01836040      -0.05831795
Ar       6.73548123      17.19756820       2.24471696       0.06725344       0.03752971      -0.03876107
Ar      10.56392858      10.68227886       0.25922839      -0.03640627      -0.01497115       0.01731216
Ar       0.08185257       1.47786123      11.48807457      -0.03324890      -0.07695599      -0.09212779
Ar      14.33233795       6.66215673      13.14887593      -0.01487927      -0.09397103       0.00266892
Ar       8.94187232      16.45825091      15.38353731      -0.00172387      -0.10979778       0.06514449
Ar       2.00373344      12.25792754       8.63212865      -0.02456449       0.03628158       0.03454119
Ar       7.22225370      14.14950667      13.31476627      -0.01909745      -0.01852415       0.10740554
Ar      12.36029948      16.70765372      14.79581864       0.00704409      -0.00690049      -0.04541363
Ar       7.23512998      16.02786933       5.93595354      -0.03582968       0.02187899       0.12292201
Ar      15.44292305      11.48602669       8.29293254       0.02297809       0.04605617       0.01220115
Ar      13.84023339      17.14399429       5.80683405       0.03091161      -0.04369079       0.02831119
