108
Lattice="17.35 0.0 0.0 0.0 17.35 0.0 0.0 0.0 17.35" Properties=species:S:1:pos:R:3:momenta:R:3 pbc="T T T"
Ar       6.80488119       1.32131832       7.95311675       0.06012172       0.06395845       0.02773563
Ar      11.16721505       6.14224156       8.99961969       0.12210299       0.03698635      -0.02634487
Ar      13.06424587       2.91645801       4.58450691       0.04296222       0.05024193       0.02133970
Ar      17.25444130       7.15936782       6.14360180       0.04806849      -0.03542694      -0.02347669
Ar       7.75984875       5.03246878       9.74923517      -0.00371750       0.05281734       0.05515380
Ar       4.85501308      15.85237147       3.73770412       0.02714209      -0.03299192       0.01521739
Ar      15.64274930       5.15196286       3.68888143      -0.04563377      -0.01457543      -0.01290032
Ar      14.26491196       4.86042531       7.44666249      -0.06180538       0.01213568       0.00429438
Ar      11.65232776      16.75728563       5.25401742       0.08312291      -0.01244816       0.08320883
Ar      16.99659102       4.90180234       0.21153573      -0.02898434      -0.01534127      -0.07602312
Ar      13.25160343       9.90035151       8.28469701      -0.00041683      -0.06188473       0.01511594
Ar       3.90993853       3.50628563       8.41836654      -0.08730725      -0.07935306      -0.10936518
Ar      13.41514514       4.61548775       1.19695513       0.07426737      -0.00955873      -0.12513998
Ar      10.00269764       3.49801554       6.40398370      -0.00375733       0.01290662       0.09443806
Ar       9.89518785       4.17921577       2.78540767      -0.11970992       0.11585110       0.00078803
Ar       1.66027669       4.39436827       4.40332904      -0.03689673       0.02298289       0.02119905
Ar       8.23073573      13.69365655       6.06249726      -0.00046028      -0.03357430      -0.01969533
Ar      12.16232150       0.51193371       1.60908895      -0.02083196       0.11984265       0.01768586
Ar       5.88726627       5.73485903       6.57186177       0.02506368      -0.13125752      -0.02637900
Ar       0.73562072       7.71663693       2.68181341      -0.00490978       0.04025591      -0.03990619
Ar      14.96997432       9.32846229       3.03514549       0.06553284       0.00109766       0.06373175
Ar      12.81268051      16.06042277      12.61567729       0.03435481       0.01700179       0.00867325
Ar       5.19674564       2.83118826       4.65962544       0.04552078       0.04113750       0.06523669
Ar       3.69037636       8.30890375       4.24701241      -0.00272947      -0.08526458      -0.00522939
Ar      15.90744738       2.01299646       2.28463911       0.05447838       0.02380338       0.06972565
Ar       6.50249579       2.44755036       0.86063653      -0.06211862       0.04828576      -0.02541707
Ar       3.89318827       2.40240634      15.83904469      -0.05201721       0.04948550       0.04315717
Ar       9.47569992       0.17488484      14.24186576       0.02427379      -0.05653296      -0.05966907
Ar       0.62272161       1.77884150      14.90169608       0.03386698      -0.06887823       0.02473175
Ar      16.24678203       1.38579070       5.64466094      -0.02334605       0.03443206      -0.03631822
Ar       8.82359114       5.64161461      17.23033260       0.00514573       0.00527762      -0.06338737
Ar      11.92722980       1.01164657       9.50192268       0.11288472      -0.01909181       0.04338078
Ar       7.35446765       8.56428311       9.84755797      -0.02125353      -0.11913552      -0.01337741
Ar       8.31996216       3.34918563      14.65919016       0.05042727       0.04406519       0.04727591
Ar       2.72345951      16.98676853      13.29340676       0.03490603      -0.03113323      -0.00307829
Ar       1.49178794       8.46483622      12.24837942      -0.00920911       0.00071281       0.00544393
Ar       2.04028991       6.56562509      15.19883506      -0.03625877       0.06338632      -0.00689447
Ar       2.68660973       1.49212922       2.45892502       0.02350577      -0.04873634      -0.05494856
Ar       5.00445713       7.35796860      12.34798427      -0.00677025       0.03767773       0.08038681
Ar       8.25335453       1.15668234      11.13873400      -0.00162632       0.05829722       0.08216221
Ar       3.48812645       7.28283599       8.96147945      -0.03972550       0.07511029       0.08248841
Ar      13.06825207       6.16107884      11.83368336       0.04980337       0.07746530      -0.05229091
Ar      15.28381117       2.56217596      11.26633361      -0.05842388      -0.06561803      -0.00182844
Ar       6.82736068       7.48357473       2.79364469      -0.02215837      -0.02004468       0.01618025
Ar       3.32559983       5.18286512       1.71981878      -0.07494420      -0.04168473      -0.08426400
Ar      16.14313260       6.19245441      10.03804594       0.05335625       0.06424818      -0.06371444
Ar       4.12188915      10.78128786      14.10233014       0.02515466      -0.00425919      -0.05903479
Ar       1.72310628       4.28369701      11.23137961       0.06314235      -0.00847142       0.00921132
Ar      10.22968058       8.90287758      15.58029442      -0.04415005       0.04684697      -0.08065310
Ar       0.22738121       3.39901047       8.25252440      -0.05279276       0.04553500      -0.00935683
Ar      12.37860765       6.30861183      15.50513581       0.04820367      -0.02963603       0.01725474
Ar      11.90581343       2.55090922      12.93577075      -0.04930287       0.05163328      -0.06588260
Ar      14.66422448      13.15423300       3.61990651      -0.00889507       0.02937787      -0.06633802
Ar       4.78189836      16.98774871      10.30163743      -0.06858242      -0.04922560      -0.10698400
Ar      15.90230160      10.86241384       6.20847176      -0.01694373       0.04811294       0.05794722
Ar      16.09387043      13.45721217       8.69179441       0.00994002      -0.01936096      -0.00778793
Ar       3.68059862       9.06143193       0.53204583      -0.08432619       0.01617542       0.02470191
Ar       8.59706237      10.57764060       2.51467608       0.02375428       0.05664408      -0.05826585
Ar      12.35556603      11.45778084       1.10384454      -0.02520660       0.05382476       0.03012931
Ar       8.67965972       8.25555697       6.42293303      -0.09588385      -0.06446441      -0.02009947
Ar      15.48922412      15.77785524       1.67989415      -0.03761909       0.02818041      -0.00133817
Ar       7.41579411      14.35112900       2.55469551       0.09027707      -0.04768388      -0.04142830
Ar      10.99550507       2.88123483      16.79374520       0.00716808      -0.08835858      -0.07202874
Ar      14.84099867       8.40948746      16.73793647       0.00298542       0.02305569       0.04350879
Ar       5.86037276      11.01246017       7.22438066       0.03318756       0.08004865       0.04781018
Ar      13.05962051      13.82689657       6.76033673       0.02771561      -0.08815100      -0.02518407
Ar       1.60125441      14.19330170      14.74356149       0.04996584      -0.05850675       0.08674294
Ar      11.67911441      10.67411304       5.06000835      -0.02255583       0.08099999      -0.07385912
Ar       0.11363604      15.30836439       5.66533847       0.03033012      -0.04715739       0.05518369
Ar       9.23381279      12.82430822      17.24469763       0.03985224       0.03821869      -0.03259184
Ar       8.23671918       0.86162373       4.56829243      -0.10951995      -0.02740555      -0.08767102
Ar      10.29389074      15.73647306       8.29468973      -0.05606563      -0.01416316       0.01157201
Ar      15.67365393      12.61213721      16.56983583       0.04769652       0.00617100      -0.08297219
Ar       1.13185216       0.59107249      10.05112070       0.02083689       0.01350488      -0.02871619
Ar       4.68915465      12.35721336       3.73117555      -0.03799894      -0.13667828       0.00420780
Ar       9.70906036      11.24246940       8.89283278      -0.05201498      -0.03395471       0.03146984
Ar      12.92478668      11.95975948      14.38826432       0.06424606       0.02873485      -0.01601942
Ar      14.58210795       2.16876531      16.36590029      -0.00251579       0.01379103      -0.01438496
Ar      12.18648312       6.59020294       4.27872123       0.05346918       0.08990422      -0.00595080
Ar      10.76035554      14.53566072       2.92846774       0.02248042      -0.09951303       0.04390082
Ar       2.13020074      13.10300380       0.94323967      -0.02509699       0.02404688       0.00328221
Ar       2.50738465       0.87507363       6.50544492      -0.01312308       0.04689575       0.06565102
Ar       6.18653235       0.18175362      14.31216181       0.02328640      -0.01268120       0.01924062
Ar       0.87449234      10.27395103      15.69695866      -0.07768884       0.02868728       0.02310873
Ar       1.74050474      14.29139184      10.62343032       0.08999652      -0.02774397       0.04688565
Ar       1.97219071      11.96846137       6.81317974      -0.01338694       0.04549440      -0.16078831
Ar      11.61811471       9.37338046      11.28091448      -0.01634345      -0.01913873       0.11211779
Ar      16.44744404       9.97737215       9.89846859      -0.00774852      -0.01016076       0.12904772
Ar      13.43527262      13.01815391      10.47480531      -0.08338838       0.04457002      -0.01106223
Ar       4.89192646      13.86459872      12.76084761      -0.11005460       0.00414180       0.01031353
Ar       5.29467917       6.06776960      16.31977719       0.03239607      -0.05374527       0.04019576
Ar       6.71228406       9.39681597      16.44025574      -0.02078489       0.04034684      -0.03987277
Ar      14.95919845       9.04687386      13.10997230       0.04803260      -0.02068980      -0.01725734
Ar      16.13674433      12.51332828      12.72120026       0.07432935      -0.06281145       0.02409395
Ar       3.92267756      14.92730275       7.02207780      -0.02774483      -0.04690069       0.02670207
Ar      15.19492191      16.96329177       8.86306354       0.02744038      -0.03383796      -0.02480299
Ar       9.76344377       6.36747272      13.10238565      -0.02407698      -0.06494872       0.00305935
Ar       5.35404328      14.99864420      17.06454003      -0.04454991      -0.01575106       0.08051271
Ar      12.03397906      15.31423755      16.26610039      -0.05725461       0.06281550      -0.04594049
Ar       1.70164892      16.73500170      17.15501892      -0.04433832       0.03327618      -0.00237470
Ar      15.97794252      16.02832826      14.34816520      -0.03466077       0.05981320       0.08301691
Ar       8.78651710       0.00589198       0.94607073      -0.10634236      -0.10263384       0.01766186
Ar       3.99303335      10.98561247      10.49795290       0.04730061       0.05768685       0.01149784
Ar       8.66695503      10.76439761      12.61799428       0.02414607      -0.04070969      -0.00831469
Ar       5.43622462       3.13293235      12.20603994       0.03055375      -0.00697703       0.09864881
Ar       6.90888726      14.06428519       9.47523627       0.02872027      -0.07844379      -0.00832052
Ar       9.04153279      14.41057389      12.30769802       0.08509281       0.06972268      -0.00555364
Ar      15.85599296       5.43019389      14.04172043       0.05336061      -0.04102430      -0.03694497
