108
Lattice="17.35 0.0 0.0 0.0 17.35 0.0 0.0 0.0 17.35" Properties=species:S:1:pos:R:3:momenta:R:3 pbc="T T T"
Ar       9.84148070       0.53501227       8.72338694      -0.04899152      -0.00271154      -0.08090609
Ar       6.36382111      11.25069630      12.86196307       0.03912090      -0.00467555       0.00209255
Ar      14.84968514       1.92045450       3.64747499       0.01017846      -0.00787306      -0.03071415
Ar      17.15896002       5.15851660      15.89901717      -0.05141033       0.06486852      -0.07524062
Ar       5.06252505       5.19419252       6.70603266      -0.02440801       0.07003088      -0.01943212
Ar       5.28197235      13.01799715       4.21693261       0.00991092       0.02677063       0.02588620
Ar      12.51135013       2.98668047       6.69014349       0.02301642       0.04281599      -0.05927934
Ar       7.32374652       8.27591507       5.76125011      -0.01863879       0.03376770      -0.00302840
Ar       7.30450882      15.80437164      10.17382335      -0.08533910      -0.00553503       0.04840880
Ar      15.13215355       1.62602404       0.16776996      -0.08424658      -0.03592242      -0.01662344
Ar      16.67057890       8.58391366       8.99037364      -0.04839851       0.01966459       0.02635652
Ar       0.74443090       4.78480706       8.28803779      -0.01016935       0.09379915       0.00052052
Ar      12.13522789       4.19773193       2.97378573       0.01087735       0.00923990       0.02496711
Ar      11.19541015       1.15774960      17.10758384      -0.07514616      -0.04150937       0.02711098
Ar       3.13802282      10.23983148       1.36075075       0.02817068       0.01146361       0.05333480
Ar       4.26244191       7.72992653       4.09635779       0.02294561      -0.00660891      -0.11271369
Ar       9.62274239      13.74776588      12.07628061      -0.03680400      -0.00236894       0.09016883
Ar      13.07257085      12.07442976       1.84686802       0.04155077       0.02011857       0.03921312
Ar       4.70061131      15.61321323       7.11105789      -0.11284622      -0.00129925       0.00307821
Ar       6.78113964       5.24843291      16.22259051       0.05395656      -0.18162066       0.04012526
Ar      16.05003261       5.91916581       5.16026170      -0.04220952      -0.08243201      -0.09618342
Ar       3.04795521      14.20688704      12.01926163      -0.04221211       0.00790621       0.05654453
Ar      11.62643741       6.08743818       5.96693324      -0.01723774      -0.12884903      -0.06711653
Ar       6.49018011       0.91602750       4.61717923      -0.04131555      -0.01421988      -0.02093998
Ar       2.05897623       2.70415198      14.39216666       0.10549963      -0.06237434      -0.00086524
Ar      15.20287249      10.24217885      16.40825418       0.05340147       0.00451809      -0.00161074
Ar       1.30927176       6.21838250      11.81685500       0.07343567       0.00298621      -0.00127184
Ar      12.75465987       1.83426464      10.08281663      -0.08916523      -0.01092498       0.03345357
Ar       6.26164983       9.42676410       9.48886913       0.05022056      -0.02532862       0.01845123
Ar      16.89411589      16.63309921       3.42558364      -0.04494393      -0.01489644      -0.01545825
Ar       1.58801116       0.03469880       0.66536471      -0.02648593      -0.07985065      -0.03572807
Ar       8.76804582       3.89812351       5.03162997      -0.08541085      -0.00292928      -0.00627705
Ar      13.16169297       7.96210193       9.68651504      -0.01329134      -0.10498977       0.00738096
Ar       5.42316577      12.70057060       9.74818589       0.05916027       0.06588882      -0.06048015
Ar       3.72521795      16.27364526      15.14887880       0.05755236       0.04391910      -0.02835277
Ar      16.40477043       2.82739954      11.94613518       0.00847733      -0.08638656       0.02987278
Ar       3.39682619       3.27607040      10.34506682      -0.11359313       0.08157491       0.01779798
Ar       2.14134519      13.76628428       0.80646356      -0.10138028      -0.01528164      -0.08786507
Ar       3.96512421       5.79918035      13.78149607       0.03028329       0.05182273       0.05814606
Ar      16.27001462      14.95375457      11.18331871       0.07477762      -0.04473649      -0.05703034
Ar       4.09722687      10.61726828       6.35900471      -0.02630163       0.00684909      -0.00958773
Ar       9.83538631       3.48940112      14.47570244      -0.01942393       0.08049674      -0.02140741
Ar       6.16836963       5.94258299      10.63843350       0.10098985       0.12788222      -0.02181840
Ar       3.17290239       5.80712861       0.06692705       0.07363014       0.13654070      -0.03451718
Ar       4.87258157       1.77222058       0.11844163       0.06397784       0.03931851       0.05783702
Ar       3.34584610       9.33879626      11.62606622       0.03736734      -0.04151326      -0.01292026
Ar       5.74447890      14.49399142       1.06859302       0.01083917       0.00050730       0.06856385
Ar       3.47995861      16.97351184       3.54568738       0.05371233      -0.04753566      -0.14637398
Ar      13.55862394       3.82590700      14.64540163      -0.03380332      -0.01107245       0.03363934
Ar       0.08455553      14.92763945       7.47306663       0.01164404      -0.00991384      -0.10999345
Ar      11.51679470       6.20815612      12.62541148       0.02746547      -0.02312651      -0.02906232
Ar       9.31042111       6.92942672       8.99280610       0.01009336      -0.14216316      -0.05310686
Ar      13.38591067      15.89377963       2.83942709      -0.05083151      -0.00240157       0.02403497
Ar       6.39170840       3.07183362      12.87446989       0.00150613      -0.00702573      -0.06152808
Ar      14.98615970      13.58884554       4.90116953       0.04728664      -0.01759151      -0.07223109
Ar       9.75960826       3.92225857      10.56434131       0.03418857      -0.04327196      -0.00034538
Ar       5.44995045       4.51946086       3.34808208       0.02694808      -0.02857373      -0.00568790
Ar       9.16409194      13.02464211       2.11124066       0.06256353      -0.07945596      -0.03545072
Ar       9.79574380       6.84619047       2.94925501      -0.02925049      -0.09258637       0.03269159
Ar       7.57519725      11.54645717       6.28621928       0.00329004      -0.05037895      -0.06825803
Ar      16.31724097      14.51783011      16.57777707      -0.12745636      -0.02668173      -0.02500519
Ar       9.62040423      12.19647116      15.54638921      -0.05104445      -0.04536085       0.05499099
Ar      10.87591710       1.12552954       3.72946690      -0.07273444       0.02067032       0.05509962
Ar      13.13961914      15.68607059       9.97861034       0.00228913       0.07092562       0.00484386
Ar      14.24667602       8.95803591       6.02234045       0.02551454       0.01506225      -0.03631752
Ar      16.74009468      10.71495996       2.54882843      -0.07019378      -0.02505898       0.06570596
Ar       6.69879037       8.05479316       1.42195900      -0.07620248       0.04619861      -0.04636254
Ar      11.18133385      10.64602539       4.95608546       0.05898864       0.01463085       0.06714475
Ar       0.01819303       3.65037359       2.28179541      -0.00828234      -0.02718969      -0.09675162
Ar       4.48031669       0.38894669      11.90159173      -0.05136548       0.01416416       0.02732049
Ar       3.63287128       1.69940312       6.67606165       0.06288143       0.03487075      -0.07112250
Ar      11.37893613      11.47208940       8.76547514       0.02320479      -0.05124938      -0.01521931
Ar      12.60706935       9.25585659      14.35033024       0.04229226       0.09993368       0.13401455
Ar       2.29965412       5.22889579       4.95556416      -0.05274407       0.10152673       0.06915906
Ar       3.11956338       7.60926116       8.35989617       0.02602062       0.01971927       0.09722704
Ar      10.22622211       9.79816372      11.52251201      -0.01906230       0.00090049       0.12425995
Ar      10.90369913       6.17060184      16.79092950      -0.07193496      -0.04451429      -0.01998709
Ar      17.25050989      17.22229909      14.21947685       0.04723808       0.00638649       0.03339562
Ar       0.69616866       9.22564476       5.46900116       0.01058447      -0.04485618      -0.08240585
Ar      12.63198076      15.13248615      16.66251635      -0.10335519       0.06169596       0.06797277
Ar      11.85237387      14.70567802       6.09806269       0.01146052      -0.02146469       0.01632822
Ar       1.23491708      13.11460450       4.49305607      -0.08680688       0.04116433      -0.05743048
Ar       8.59443646       3.21092257       1.59049199       0.05231270       0.11312918       0.08925405
Ar       0.12236850       7.20720458       1.51179363      -0.04138919       0.03036170      -0.01470019
Ar       3.82760532      12.36437425      14.99189951      -0.06740034      -0.00709203       0.08411938
Ar       6.76485813       2.31869516       9.20073963       0.02773897      -0.03910150      -0.02615467
Ar      13.70911126      13.42036119      13.21439648       0.09741546      -0.03184733      -0.02720387
Ar      15.43661433       9.99335767      12.35170635       0.13231375       0.03546514       0.02252586
Ar       6.52354170      11.11350534      17.21835387       0.05660475       0.02622189       0.08358564
Ar       8.70369700       8.77995721      14.68369663       0.02509166      -0.01843017       0.07587638
Ar      14.87485419       5.14762771       8.63787605      -0.00674993       0.03049154       0.01738741
Ar      13.47749907       7.88985491       1.58358311       0.06671031      -0.00124872      -0.01133255
Ar       0.46663174      12.26120706      13.50538353      -0.00648770      -0.02871368       0.03733987
Ar       9.46342370       0.90447410      12.33159631       0.01824812       0.05996008      -0.06182930
Ar       1.20269867       8.81726201      15.05693160       0.02283860       0.00195764       0.05056052
Ar       0.18527103       1.66917485       6.10727920       0.04276073       0.02962907       0.05254821
Ar       4.99192426       8.69523863      15.07275904      -0.06497763       0.00064127       0.04524442
Ar       8.52984557      16.43672718       1.90000028      -0.01075145       0.01953318      -0.09758917
Ar      10.17753358       9.72857891       0.64948430       0.00826717      -0.01459003       0.01875496
Ar       1.69175561       0.13973408       9.75888791       0.03835026       0.00983215      -0.02391094
Ar      15.07309447       6.59730488      12.74382177       0.04752067      -0.00852385      -0.03905497
Ar       7.73365063       0.58005375      15.84239654      -0.06707019       0.02662397       0.04262422
Ar       1.31132631      11.23557485       8.99503963       0.08676148       0.10109029       0.01638129
Ar       6.93037256      14.68644936      14.02573496      -0.05553017      -0.07140285      -0.05568263
Ar      13.43362818       0.25996460      13.22714326       0.01136386       0.06609569      -0.04314977
Ar       8.23292016      15.14701117       5.62772931       0.11520051      -0.11174431       0.02648131
Ar      14.97193967      12.08728226       8.27478378      -0.04544128      -0.00286477       0.04463430
Ar      14.38403363      17.23545136       6.77282218       0.05222381       0.04023762       0.06615874
