108
Lattice="17.35 0.0 0.0 0.0 17.35 0.0 0.0 0.0 17.35" Properties=species:S:1:pos:R:3:momenta:R:3 pbc="T T T"
Ar      10.34285057      13.24777046       3.25701583      -0.05252158      -0.10858739       0.07012474
Ar       7.37437413       9.26754968       9.56843015       0.02537585      -0.08743598      -0.11072115
Ar      10.89424255       2.34349886       3.87022222      -0.06504882       0.00242359       0.01032941
Ar      17.20117797       6.39872914       3.58131868      -0.08037851       0.02074675      -0.02772133
Ar       5.57097036       6.21015663       8.36020518       0.04325331      -0.01982508      -0.02579325
Ar       6.30162965      12.47484524       3.47589992       0.00855600      -0.00238673       0.05459785
Ar      12.12706781       5.11884911       5.81040782      -0.08923886       0.11584198       0.02601413
Ar       8.10353396       9.66831509       4.81984922      -0.01801487       0.02962210      -0.02179569
Ar       9.54773151      15.50692115      12.20832321       0.03155772       0.04531888       0.13396866
Ar      13.32872364       2.02846511      17.05706587       0.01872319      -0.03861194      -0.10692704
Ar       2.60984216       7.48690229      11.00148500      -0.05753983      -0.03826958      -0.14110166
Ar       4.27162885       3.11861401       7.48630464      -0.02574542       0.10910639       0.00580439
Ar       9.81653351       2.42971319       0.31584686       0.03047148       0.03367245       0.10611193
Ar      10.74002691      13.60052798      17.05371299       0.01098585      -0.08714209      -0.03281389
Ar       3.52464612      12.97438552       0.84962038       0.00265648       0.01500465       0.03415280
Ar       1.85267578       6.22012925       6.63714191      -0.03096414       0.03054529       0.02164998
Ar      11.56029434      10.33340921       5.46409022      -0.06167212      -0.03255531      -0.05961887
Ar      14.05128165      13.73241676       1.79153694      -0.00646092      -0.01221146       0.10487654
Ar       8.84291916       0.10752212       7.17559822      -0.01641191       0.07197823       0.07881793
Ar       4.25227179       6.15744126      15.35937949       0.03133416      -0.04250565       0.02473451
Ar      14.99092780       6.80866184       0.69632477       0.04567264       0.01264590      -0.04489391
Ar       1.21181004       0.35826997      10.67012352       0.06909239       0.02158956       0.05955602
Ar       8.46257577       5.20248043       3.11487593       0.07208593       0.06296951      -0.03338505
Ar       5.85019646       5.57700340       0.75235667      -0.01266652      -0.01124134       0.14469740
Ar       0.17630165       3.74049987       0.88086057      -0.08755057      -0.07259725      -0.09498877
Ar       4.41833800      17.04865149       0.75070395       0.05197843      -0.04811938      -0.07607650
Ar       5.63558815       5.81159730      12.11527586      -0.01744785       0.07342616       0.05179847
Ar      12.28570071       1.30389990      11.65518598      -0.06091595       0.04305064       0.09946979
Ar       4.01499813      10.77246776      10.21937774      -0.01228948      -0.04709378      -0.06429789
Ar      16.87088826      14.44213001       5.59610238       0.04325825       0.02723248       0.12684191
Ar       1.51471757       2.67604731       4.38613181       0.03851970      -0.03386545       0.02998699
Ar       7.55456114       3.99292470       6.36363956      -0.00718715       0.01581582      -0.03735255
Ar      14.23848184       8.34161887       6.57470575      -0.00389653       0.03107706       0.03988554
Ar       7.52164961      13.10983033       9.74451257       0.03825230      -0.01698987       0.03570253
Ar       2.59950870      16.58747720      14.76221920       0.03076754      -0.01981582      -0.03547768
Ar      14.88954891       5.14444639      14.54838794      -0.05510252       0.00429232       0.00743079
Ar       1.61000507       4.49139353      13.77031512       0.04831743      -0.07976858       0.02438120
Ar       2.50086680      16.53455745       5.84451700       0.01826424      -0.02989059      -0.05447328
Ar       4.96521975       1.73177328      13.56488709       0.02014560       0.03806010      -0.00112437
Ar      14.67775650      15.27565360       9.87414066      -0.08316043      -0.06741687      -0.02790236
Ar       4.98393393      10.17633949       6.39873672       0.01655189      -0.02056756      -0.08837490
Ar      11.96362403       6.49871015      11.95660563       0.03359167       0.03581831       0.01739928
Ar      16.64622185       7.25170767      12.27660120      -0.07845540      -0.00464612       0.03059283
Ar       2.98488417       5.04212338       2.33440431      -0.06352345       0.01397734       0.01580251
Ar       3.14938647       2.73884650      16.70062957       0.01808813      -0.00141466      -0.02298547
Ar       1.76236113       9.97263279      13.41494314       0.09068936      -0.07300849       0.03281221
Ar       4.91602787      13.59424250      14.72875929       0.05935084      -0.00086377      -0.00701993
Ar      16.65350150       0.56956683       6.91277159      -0.05148433       0.07564874      -0.01225739
Ar      10.93862635      17.20898412      15.42879384      -0.01817807       0.00702795      -0.01850122
Ar       2.86135895       3.80978093      10.46863073      -0.02394593      -0.04722866      -0.02511456
Ar       8.58200860       7.01766488      13.69911274       0.04071330       0.00044743      -0.00334026
Ar       8.59530378       7.19709374       6.86887389       0.07818725      -0.08792471       0.02635196
Ar      13.66024863      16.90690367       3.57039800       0.04331099      -0.03813561      -0.04637110
Ar       7.13960861       2.18395430      10.05378544       0.02845470      -0.00938030       0.02776411
Ar       1.68029430      13.17566116       8.27152097       0.01257376      -0.01526408      -0.00900173
Ar      11.65248010      15.31906779       8.04252053       0.01012124       0.04343336      -0.11896474
Ar       3.99051002       9.69542133       2.97308950       0.06900964       0.06706603       0.01390266
Ar      12.30960079      10.34336525       1.71317683       0.05954451      -0.00596595      -0.06766374
Ar      12.09207181       6.49120091      16.41421373       0.00718076      -0.05159362      -0.02000846
Ar      10.79645678      11.85643259       9.28510726       0.02418116       0.01689088       0.07203227
Ar       0.97068903      17.21550737       1.94304123      -0.05479856       0.04244194      -0.04333413
Ar      12.60730875      12.81174157      12.04892194      -0.08077285       0.02035440      -0.05950325
Ar       9.57110694      16.44532235       1.61173517      -0.03319095      -0.01200734      -0.02821559
Ar      11.39228312       7.03353830       2.69263427      -0.06318882      -0.01718670      -0.00159544
Ar      15.36000163      10.50707080       3.77034609      -0.03513209       0.01974349      -0.03859277
Ar       2.48780212      12.98001751       4.63150319      -0.03493607      -0.01323270       0.00946964
Ar       4.66282730       9.98772844      16.51151577       0.07206128      -0.02022186       0.08230246
Ar      11.53340490       8.17094715       8.39261156      -0.03618246       0.10635685      -0.02035947
Ar      15.08224363       3.20738548       3.61698499       0.05652058       0.02090925      -0.04405911
Ar       5.94166969      16.34374981      11.79539295      -0.06178611      -0.01228288       0.06156874
Ar       5.32983104       1.94155504       4.14845817      -0.00209271      -0.04947893      -0.14562259
Ar      13.99260805       5.25826545       9.58995252      -0.02142984      -0.00314461       0.08036639
Ar      15.99905979      10.66843418       0.18237122       0.03784849       0.00208946      -0.01033395
Ar      17.05928213       3.98840804       8.21800376       0.10806308      -0.12012769      -0.05049750
Ar       5.18431109       6.48782942       4.92601046      -0.02451405      -0.04633820       0.01008504
Ar      13.83016960       9.80615419      10.94084004       0.04779872      -0.03053741      -0.02021452
Ar      11.04891935       3.65931565      14.12827645       0.05017240       0.00231099      -0.05448490
Ar      15.45801301      16.46554196      16.88361663       0.06185020       0.10365096       0.06850984
Ar       0.99433979       9.91373009       6.22227365       0.05047685       0.07023158       0.06542128
Ar       0.24558957      13.74009289       1.71101216      -0.06107026      -0.00349767       0.01103492
Ar      13.30377792      13.65057090       5.31068638      -0.01364694      -0.03071950       0.01089569
Ar       4.21077077      17.04268543       8.90607344       0.03462028      -0.02036078       0.02578051
Ar       7.47250265       4.02321326      15.11710030       0.08211146      -0.01264682      -0.08532882
Ar       1.01174182       7.68405452       0.32681845       0.01836645       0.03120082       0.04285584
Ar       2.63849089      14.35780184      11.96009937      -0.04971200      -0.01055095      -0.01080042
Ar       4.88551557      14.03204959       6.70587335      -0.02958395       0.04636089      -0.02507276
Ar      14.15409350      12.70841755      15.42438062       0.03970920      -0.02606570       0.04863716
Ar      15.87906914      15.40191966      13.11660026      -0.02220757      -0.04180346      -0.01374742
Ar       9.98261882       9.73301623      12.09460396       0.01539617       0.13048095      -0.08440181
Ar      10.11805660       9.58564433      15.91458704      -0.00544582       0.10198294      -0.00668110
Ar       8.91444780       5.50300931       9.98090098       0.06926868      -0.00484084       0.01121315
Ar       7.62240434       8.61568215       1.18453242      -0.02338685       0.03456973      -0.02043941
Ar       0.93462060      12.91119941      15.25671748       0.06803504      -0.01738327      -0.03856028
Ar       7.37088196       0.12373630      16.10606850      -0.07594643      -0.02673994       0.03478106
Ar      16.22339730      12.15750198      11.98799938      -0.05095790      -0.00280234       0.01440511
Ar      13.88275109       1.80128336       8.72422389       0.00769870       0.08226495      -0.05088697
Ar       5.52708994       9.12881656      12.98517968       0.02782374       0.08430003       0.09641867
Ar       7.31846961      15.81277244       4.05335147       0.02950273       0.00670120      -0.04713181
Ar      14.25413171       9.02277716      14.63415955      -0.03223274      -0.00102982      -0.02108409
Ar      16.79925429       1.87585012      15.20571034      -0.00164855       0.04019436      -0.00298907
Ar      16.36173264       3.11780800      11.85545898      -0.07011362      -0.03923852      -0.01682948
Ar       7.20861669      13.33877889       0.10995742       0.03218232      -0.01838521       0.02983670
Ar      16.73975456       8.83168234       9.29693339      -0.09845611      -0.01199529       0.01183544
Ar       8.08945369      12.60863079      13.41164883      -0.00633073       0.08696670       0.06402367
Ar       8.82102476       1.44342232      12.90410510       0.00427188       0.02079354      -0.04153589
Ar       8.73083377      13.56046460       6.47884897      -0.08215430      -0.09566383       0.00431057
Ar      14.55646035      12.06422483       8.34520901      -0.02869035      -0.07414585       0.04805428
Ar      10.63045324       2.92212367       8.45241571      -0.00518618      -0.10388316       0.05897377
