108
Lattice="17.35 0.0 0.0 0.0 17.35 0.0 0.0 0.0 17.35" Properties=species:S:1:pos:R:3:momenta:R:3 pbc="T T T"
Ar       8.97933146       2.39741421       7.05027057      -0.04783348      -0.07214208      -0.00566095
Ar       9.88512663       7.33455383      11.99780232       0.00592255      -0.02704675      -0.04680438
Ar      11.81127669       3.18772239       5.39741808      -0.04946612       0.04974103       0.04527854
Ar      16.84930703       7.22811206       5.44639173      -0.03762800       0.00960618       0.05467326
Ar       6.22778420       4.20635103      11.06595651      -0.02001158      -0.01724930       0.01484482
Ar       3.15978243      13.52101330       4.68491797      -0.03994031       0.04230590      -0.02684095
Ar      15.54117130       4.17515939       4.07906830      -0.06516476      -0.00181499       0.04821206
Ar      12.44595427       6.36887149       6.11597152       0.05586196      -0.02601659      -0.03265597
Ar       9.49622708      15.43101709       7.70368046       0.02120030      -0.06224492      -0.01249103
Ar      15.19920252       5.76492414       0.50495047      -0.01696124       0.02997029       0.05257943
Ar      15.96508237       9.57229951       9.58033447       0.09656764       0.03879925       0.02456776
Ar       3.31542686       3.19108136       8.66316109       0.03141594       0.08386261      -0.08036605
Ar      11.47127175       4.98582031       2.19609560       0.02291965       0.02749100      -0.05546552
Ar      10.34350526       8.08995608       8.40866784      -0.03126087      -0.07963395      -0.03215385
Ar       5.57335816       0.43683791       1.58023651      -0.05426946       0.07042992      -0.05251215
Ar       2.02585730       4.26854990       4.74349135       0.05978246      -0.06794113      -0.00355440
Ar      10.66716978      10.37009902       3.76321517       0.06538746       0.02587748       0.08294401
Ar      10.24209725       0.31228476       2.11131746      -0.02126953       0.07109391       0.06403108
Ar       8.92568043       5.65114001       6.10599529       0.00051941      -0.03762694      -0.10132299
Ar       1.30003499       6.53245036       2.00617882      -0.02360256      -0.01354394       0.05693969
Ar      13.41274817       8.16223916       2.74185948       0.02571166       0.06279461      -0.05140394
Ar      14.11272082      15.10882762      11.18452704       0.07837088      -0.05170814      -0.08010028
Ar       5.47616699       3.06096460       5.64906355      -0.06893422      -0.01856938       0.03613007
Ar       4.80300128       6.25897434       3.94404272      -0.01174559      -0.07546050      -0.01088469
Ar      17.23290260       3.04457994       1.06003623       0.01839354       0.06987595      -0.07057865
Ar       7.38371966      16.22625783      16.36000679      -0.03003737       0.00935858       0.04294809
Ar       5.30880441       2.97921784      14.80169920       0.01346905       0.09988597       0.01467626
Ar      11.06630385       0.17518393      14.08041055       0.16795977      -0.00139913       0.02990092
Ar       2.16933845       1.25188308      15.78027834      -0.03225546       0.03800721       0.04949184
Ar      13.31653851      16.75205965       7.88945684       0.07281178       0.00626145       0.10763289
Ar       6.11264117       5.61852808       0.17199424       0.08057679      -0.06288547       0.00899559
Ar      10.11004688       4.48761786       9.72313111      -0.07172084       0.01768757       0.09349735
Ar       6.56102460      11.14135749       9.01104078      -0.06435724       0.01652964      -0.01534899
Ar       7.05570876       6.55869504      13.69629973       0.01598573      -0.04377205      -0.00789366
Ar       3.53309610       0.39767403      12.47075322       0.03282545       0.01904628      -0.05746613
Ar      17.11285609       6.23255346      12.13625876      -0.02235953       0.02288727      -0.10444871
Ar      15.51401387       2.42343775      15.11030840       0.11016549       0.02889538       0.00573326
Ar       2.38806568       0.19454942       3.62844332      -0.04329746       0.06278763      -0.04037183
Ar       3.69364540       6.67925086      12.19245779       0.12281303       0.03356811       0.10283498
Ar      10.73151085       0.49842733      10.53761660       0.02399218       0.07804408       0.01505402
Ar       6.07309036       6.18508207       8.06835270       0.04001230       0.05654587      -0.01603879
Ar      14.21988145       6.55030956       9.45903555      -0.01893282      -0.06401344      -0.02098823
Ar      12.96906684       2.72466146      12.64535776       0.01237916       0.01462004       0.00752565
Ar       8.28675245       3.34551697       3.42526704      -0.03044884      -0.04505663       0.00880238
Ar       3.75153122       3.46890539       1.77268827       0.06621112       0.03599005       0.01196714
Ar       1.11821859       9.56804437      12.54619979       0.11557018      -0.03815525      -0.05144368
Ar       2.03779373      11.53553097      15.60099373       0.01684950      -0.00938412       0.00042552
Ar       1.69261303       3.42452754      12.09139917       0.03777854       0.02930918       0.00181048
Ar      10.91504611       9.89400506      13.97565383       0.02097564      -0.03114334       0.02880520
Ar       1.51628611       7.29458430       8.77335380       0.02333135      -0.07042213      -0.03566064
Ar      10.35592016       6.10882649      15.73863170      -0.10083751       0.00859653       0.02254100
Ar       9.24203081       3.22535336      13.08905013      -0.00425624       0.00783481      -0.08230749
Ar      16.44998892      10.31890841       1.06984571       0.04676928       0.02386622      -0.00007384
Ar       6.42487254      14.52944540       9.34844876      -0.08454641      -0.01552633       0.03354384
Ar       0.79147729      10.80555179       6.69562309       0.00487344       0.05934152       0.08756658
Ar      17.07343955       1.10695889       9.89829976      -0.08683724      -0.04651876      -0.07288351
Ar       3.75924105       8.66935121      17.25065377      -0.09929794       0.09305036       0.08092491
Ar       8.55369002      11.86438731       1.05305400       0.03051936      -0.01908249      -0.00903197
Ar      14.58291489      13.25046836       0.74286618       0.01973224       0.05880716       0.03802805
Ar       7.56566320       9.01293737       5.03035161      -0.07351421      -0.03206080      -0.03714967
Ar      14.44879385       0.84274872       3.41719224       0.02058320      -0.00038871      -0.00528446
Ar       9.24814296      14.57207731       3.79548467       0.05971959      -0.10936701      -0.09888538
Ar       8.79690713       2.73572683      17.14927913       0.08815570      -0.04097342      -0.02663876
Ar      12.59228425       8.92262217      16.74863126       0.09154518      -0.00683240      -0.00741528
Ar       4.08620594       9.91509354       6.28341663      -0.04070190       0.03853192      -0.00623872
Ar      16.84702145      14.86762720       8.17410178      -0.08644567      -0.02776994       0.03399868
Ar       1.76278401      12.78748446       1.37958138      -0.12140851       0.01622193      -0.05106870
Ar      15.15117917      11.03244529       4.92990069      -0.07972219       0.01092248       0.16131121
Ar      16.66087322       1.04902200       6.25552062      -0.00048154      -0.05872025      -0.02350236
Ar       8.76443980      12.84381507      14.89423813      -0.07502001      -0.03989398      -0.08087594
Ar       6.30931383      16.82355042       5.27681415      -0.05425547      -0.01587270      -0.07147899
Ar      14.00004171      12.65658515       7.89792445       0.08406456       0.02708641       0.04735099
Ar       0.15958749      16.40305270       0.61215088      -0.07774335      -0.06815228       0.00151267
Ar      16.94027474       4.35748354       7.97523755       0.02140869      -0.03070958       0.00932961
Ar       5.57264274      10.04264491       2.47698394       0.01648244       0.02847540      -0.03633577
Ar      10.20917459      11.52924429       7.19241928       0.01503821       0.00992077      -0.18729141
Ar      12.38613442      13.79010679      14.33346075       0.03519636      -0.06683953       0.02235715
Ar      12.22977545       2.66137033      16.75422469      -0.00103495       0.01489955      -0.06169676
Ar       9.09978488       7.30304954       1.83887115      -0.05700073       0.09546420       0.02809227
Ar      13.11956171      14.91037020       4.65475123      -0.01951022      -0.00717104       0.05198253
Ar      16.42940883      15.30425137       3.92807604      -0.09172810      -0.02131422       0.02069893
Ar       2.76118414      17.28068018       7.34269362      -0.03850503       0.07526445       0.04599201
Ar       7.68610192      16.77727064      12.71318446       0.04661051       0.01362442      -0.04783371
Ar      16.73626211       8.11902721      15.63503274      -0.00932696      -0.11520877      -0.06291077
Ar       2.78988349      13.65245663       8.30488312      -0.01117156       0.10106782      -0.02076871
Ar       2.19467215       9.73324761       3.09855105       0.00746205       0.09571119       0.02790282
Ar      12.37434943      10.96230650      10.47137159       0.05908204       0.03253995       0.02296321
Ar      16.27535469      13.28254194      14.27583093       0.01103747      -0.09246766       0.06342403
Ar      16.72656411      12.38502562      10.74075671       0.03446184       0.03849707       0.06158608
Ar       5.61321762      12.47796438      15.87172657       0.01743846      -0.02461207      -0.07358948
Ar       2.57515850       5.05153502      15.75624038       0.05644856      -0.01899086       0.08931820
Ar       7.49794311       9.20838564      16.27287142      -0.01125755      -0.07363122       0.03712856
Ar      14.62449075      10.39742117      13.75421851       0.02446138      -0.07114021      -0.03261665
Ar       5.18794258      13.15163019      12.17572026      -0.03654363      -0.02164316      -0.03432777
Ar       1.96765945      14.65973872      11.54099763      -0.09091822       0.01957150       0.07463633
Ar      13.80556990       2.92705632       8.60837122      -0.03272744       0.11321011      -0.03945313
Ar       5.07188210       9.91315956      13.40085768      -0.02454068      -0.01143264       0.00580149
Ar       5.74015868      14.11806893       2.15432322       0.03162739      -0.03167254      -0.01179909
Ar      14.22928645      16.24999251      16.28554579      -0.00757575       0.00758931       0.10856760
Ar       3.58790945      15.49637010      16.84554334      -0.05442728       0.01410489      -0.06562716
Ar      17.02597030      16.78192679      13.31939527       0.04628613      -0.02253950      -0.06577183
Ar      10.58684773      14.68010280       0.26384117      -0.04109157      -0.09738153       0.01516939
Ar       3.40796810      10.06065309       9.89376256      -0.02751573       0.00250796       0.06764246
Ar       8.36839331      10.55544272      12.00698968       0.01533062      -0.03495415      -0.00054123
Ar       6.28143965       0.80305579       8.76538286       0.10372561      -0.06250284       0.07402845
Ar       7.11574799      12.59863496       5.51561329      -0.09661213      -0.04427523      -0.09548747
Ar      10.31625034      13.82621360      10.96113686      -0.02084243       0.01766021       0.02995970
Ar      13.49488907       5.75714569      14.11348503       0.01507456       0.07123538       0.04768144
