108
Lattice="17.35 0.0 0.0 0.0 17.35 0.0 0.0 0.0 17.35" Properties=species:S:1:pos:R:3:momenta:R:3 pbc="T T T"
Ar      10.26123539      17.10596276       5.36836350      -0.08897246      -0.09003521       0.07010137
Ar       9.92928229       7.43488214      14.00884733       0.03952750      -0.04563213       0.01844882
Ar      13.07717304       2.79479848       3.55196858       0.00758072       0.03842887       0.05881367
Ar       0.20452175       8.45282653       3.76867693      -0.07352724      -0.12693777       0.00466244
Ar       5.83147794       3.61860357      11.71302464      -0.00928023      -0.08591100       0.03832449
Ar       3.03506604      14.93343138       4.41125818       0.00956242       0.04885681       0.02093861
Ar      13.14722930       5.75367281       5.34564658       0.02991875       0.05991632       0.08427999
Ar       8.76861511       7.23055957       7.58399763      -0.02076224       0.00887108      -0.00930495
Ar      10.02782569      14.31569289       8.33537942       0.07528815       0.01849337       0.05978379
Ar      15.21411977       6.48561711       2.29830610       0.04599103      -0.02692685       0.02565473
Ar      16.44860998       9.10031482      10.92740743      -0.02241029       0.03346493      -0.04174250
Ar       4.52673452       2.29596134       7.76771113       0.01648885      -0.02711509       0.04108961
Ar      13.64376064       3.78798197      17.18905743      -0.03678744      -0.08590536      -0.06591788
Ar      10.31011999      10.66851470      11.74855898      -0.00525121      -0.00947724      -0.03033454
Ar       3.68820646      17.14427105       1.38283488      -0.01660206       0.02257784       0.07603341
Ar       2.89629985       5.63699790       5.01834382       0.02542863      -0.01005032      -0.02869576
Ar      10.83542325       9.59288359       5.92753333       0.11771883      -0.00427797       0.00491508
Ar       9.92892467      14.25044559       2.06372566       0.01699556      -0.01913073      -0.01466521
Ar       9.64032072       4.58370112       4.55124404      -0.03852738      -0.12178893      -0.01597509
Ar       1.61418202       7.07843392       0.65704912       0.05955809      -0.02019996      -0.02866476
Ar      13.88702569       9.74249956       3.75886484      -0.03527003      -0.01449561      -0.04134965
Ar      14.83896436      16.50559446      10.10169570      -0.08105941       0.00322903      -0.03399266
Ar       6.09912561       4.52475073       5.13723396       0.04765636       0.08288005       0.01046686
Ar       4.88807933       7.50229432       1.93702262      -0.02937371       0.09176316      -0.00598979
Ar       0.22441112       3.75178982       1.30344154       0.06487516       0.06358053       0.04659674
Ar       6.79043944      15.72546950      17.24716473      -0.00399112       0.09479193       0.02257380
Ar       6.63169541       2.31704515      16.44867263      -0.02677979       0.00943497       0.01383529
Ar      11.02247146       0.59248590       8.85654469       0.00623318       0.03509372       0.02739080
Ar       3.19451603       3.66308265      14.86210062       0.09510484       0.05967035      -0.00816373
Ar      14.15501589      16.22077541       4.08270125       0.07868103      -0.00034734       0.01625989
Ar       7.73788646       5.11257165       1.26012610       0.01899252      -0.05947101      -0.00794292
Ar       8.13497221       3.59672491       8.26553764      -0.00874638       0.07143094      -0.02946172
Ar       5.20494300       9.70690193       8.57761709      -0.01487152      -0.02915562      -0.08232889
Ar       7.39060412       8.47285190      11.54979909       0.04371321       0.13138822       0.01718172
Ar       3.69416978       0.69173169      11.36207028       0.05315718      -0.04707205      -0.01448238
Ar      15.86602664       6.33885915      12.95550874      -0.03251934      -0.01504599       0.03327849
Ar      16.58267557       3.01114517      15.28698925       0.07530894       0.09641873      -0.02193734
Ar       2.70222100       1.87041291       4.27299671       0.01094994      -0.01685638      -0.02128062
Ar       2.02461335       4.18680764      10.87736551      -0.01629809       0.04314857      -0.12671123
Ar      11.56288922      14.75620584      12.00726628       0.00747772       0.01411366      -0.09491267
Ar       4.71845459       5.91764538       8.51554812      -0.02733985       0.02514912      -0.02650386
Ar      12.96964081       8.68533651      12.03641990      -0.01764369       0.02351694       0.02178819
Ar      15.44366105       3.06915636       9.75542483       0.09242542       0.01717017       0.06317232
Ar       6.67568632       1.30293818       3.15298432      -0.02084057       0.05246714      -0.01744587
Ar       4.19723601       3.86117138       1.60191295       0.09195773       0.02217301       0.10149113
Ar       1.60448201       7.83352685      14.30271371       0.09609087      -0.06660546      -0.15825533
Ar       1.56180121      12.79513123      13.61063475       0.05715067      -0.02524947      -0.03188768
Ar       0.45422449       1.21676934       8.09727894      -0.07921490       0.00869198       0.05971881
Ar       9.73500461      14.03155359      15.27202910      -0.11281188       0.00000443       0.05808157
Ar       0.96740286       7.75364110       8.02611772      -0.02469495       0.05931828      -0.08502063
Ar       9.63569658       4.32029383      15.55222502      -0.04208233      -0.00285239      -0.04069728
Ar       9.45042939       5.14958630      11.32091584      -0.08072023       0.05130746       0.06139598
Ar      15.85695146      12.71734475      16.97856404      -0.10194631      -0.04638509       0.03859206
Ar       7.90463805      13.36083047      11.60663991       0.01321689       0.04632539      -0.02014280
Ar       1.10799945      12.58025221       6.84396260      -0.04016399       0.00084110      -0.07878692
Ar      13.62432462       1.38470065       6.75792644      -0.00883737      -0.02081532       0.00400620
Ar       2.55702954      10.17882670      16.84882742      -0.03188389      -0.00072159      -0.01748326
Ar       9.85838797      10.88444680       2.74896842       0.04158159      -0.10220840       0.04308456
Ar      12.44215342       8.20391840      16.33663378       0.04123997      -0.08549882      -0.06659588
Ar       8.23102698      11.17013327       8.27395151      -0.10321454      -0.08232699      -0.06107593
Ar      12.73504543      16.55365054       0.99886432      -0.01411091      -0.03495787      -0.02444946
Ar       8.53685134      13.22944173       5.34827248      -0.02430876      -0.10274086       0.04757820
Ar       9.96886068       1.53315303       2.19192528       0.00783266      -0.00249248      -0.03381673
Ar      11.55229892       6.89546379       2.38404034       0.00908494      -0.00348715       0.03863644
Ar       3.04492154       9.18519730       5.98868461       0.06304028       0.08143771      -0.08807591
Ar      17.11828757      15.77462783       5.90039083      -0.04529553      -0.00266302      -0.02035445
Ar       3.86348808      13.49013526       0.38830760      -0.02117577       0.08811592       0.10063724
Ar      13.89058005       7.63567926       8.24664671      -0.00867366      -0.02438022       0.06432524
Ar      16.42935032       1.82641879       3.98152652       0.04990579      -0.00470289      -0.12259681
Ar       6.40010102       0.11934725      13.84761949      -0.08496393       0.14003366       0.03254464
Ar       7.04694400      16.22220892       6.35575072      -0.00261707       0.03904077       0.06038430
Ar      15.76927661      10.49219440       7.01152190      -0.03814423      -0.07589978      -0.03308735
Ar       0.17930685      14.97406010       1.94789172       0.03868211       0.07939859       0.01599674
Ar      16.53293104       5.17856284       6.65738470      -0.00941567       0.06817705      -0.00404425
Ar       5.69440627      10.54722013       3.64672841      -0.01191677      -0.02363773      -0.03501258
Ar      12.38384772      10.83371472       8.94340907      -0.02493044      -0.07605700       0.05214551
Ar      13.02004035      17.31441377      14.10744106      -0.08931728       0.05600271       0.07795360
Ar      15.87324580      17.05321127      16.36380817      -0.05175453      -0.12631842       0.01995561
Ar       8.20242812       7.86344251       3.74777437      -0.01835028       0.05345731      -0.01471930
Ar      12.30613080      13.12349851       4.22414081       0.06611957      -0.06899415      -0.01750598
Ar      15.79873282      12.87788032       3.97394776       0.07030512      -0.05630275      -0.00698013
Ar       3.05236011      15.87350175       7.63437852       0.04991898      -0.06873113      -0.00746578
Ar       9.36447989       1.58971113      12.37354055       0.02900519      -0.04906522      -0.09651843
Ar      16.11606016       9.32230353       0.62050169      -0.02216922       0.08858634       0.01911468
Ar       4.54173107      14.45714724      10.52449123      -0.03003761      -0.01284889       0.05616621
Ar       2.23083909      11.79653543       3.14281412       0.06926230      -0.00209842       0.01590275
Ar      12.92405239      12.09026789      13.93279490      -0.03759742       0.00064911       0.03028265
Ar      15.97405314      14.67568107      14.15371825      -0.01131843       0.08207586      -0.00131178
Ar      15.28509221      12.46629258      10.69501334      -0.04913606       0.04732430       0.01519290
Ar       7.48927551      11.74322043       0.21837614      -0.03143969      -0.02306222       0.04500400
Ar       5.25969874       6.99632848      15.26634232       0.07521318       0.02402118      -0.04832092
Ar       9.18865590       8.18829401       0.38676998      -0.01833199       0.02869486       0.10148233
Ar      16.12243718      10.04656410      14.27242045      -0.01553916       0.01164992      -0.00256710
Ar       5.78028345      13.41391154      14.54946937       0.10760376      -0.04416560       0.03419359
Ar       0.54138527      14.99918988      11.18969392       0.00114330      -0.06766394      -0.00366979
Ar      11.32862874       4.43666933       8.42355043      -0.03388559      -0.00743158      -0.05135216
Ar       3.84637162       7.33290767      11.71366741       0.00954306       0.02820895       0.00753620
Ar       6.22844015      14.43890605       3.05282419       0.10024180      -0.05615054      -0.00828630
Ar      12.01093296      11.91333131       0.19008685      -0.03370618       0.03024316      -0.06150554
Ar       3.41641196      16.18004204      15.15528015       0.04033202      -0.03932785      -0.02561848
Ar      17.31429848       1.08453164      12.45102557      -0.07147444      -0.02053759       0.13254829
Ar      10.23032382       0.14372542      15.95132339      -0.05030928       0.03203098      -0.02985710
Ar       2.55144371      11.30300447      10.83447321      -0.00399712       0.03433070       0.01298860
Ar       8.16866100      10.23722084      14.47636724      -0.02775513       0.05208075       0.00924956
Ar       7.10212667      17.19431173      10.08819203      -0.02472073      -0.05466277      -0.01138545
Ar       4.84806561      12.68295851       6.69761118      -0.04519963      -0.00850154      -0.05343623
Ar      13.43937271      14.24524292       7.35930127       0.02693206      -0.01050062      -0.00706976
Ar      12.69578716       2.92063978      11.98708234       0.00997908      -0.04419958       0.00497777
