108
Lattice="17.35 0.0 0.0 0.0 17.35 0.0 0.0 0.0 17.35" Properties=species:S:1:pos:R:3:momenta:R:3 pbc="T T T"
Ar       9.02948831      14.95784312       4.00670260       0.00769602      -0.01869297      -0.03845772
Ar       9.71028212       9.93251710      10.91497966      -0.10239169      -0.10859613      -0.03514107
Ar      12.28491089       1.95573449       3.59099213      -0.04009130      -0.03165743      -0.04301422
Ar      17.22449793       7.13908013       4.64837586      -0.02058906       0.15149033       0.02072258
Ar       5.71372751       4.23841602      10.18535220      -0.09659487      -0.03652816      -0.08571816
Ar       5.27606007      14.19953298       3.53557931      -0.04581919      -0.08679271      -0.06626760
Ar      14.14590156       6.10889728       7.13453996       0.01488064      -0.08054225      -0.01626123
Ar       9.82627719       7.92646833       7.40107859       0.07929221      -0.01232061       0.09042402
Ar       9.34427305      13.74381772      10.90752380      -0.09169646      -0.00186988       0.01868380
Ar      14.92236877       4.23432692      16.86312142       0.05887476       0.04468684       0.10035696
Ar      16.68016387       9.02814705      11.28544192       0.04814795       0.04124891      -0.03472019
Ar       2.08883669       1.12459618       8.09034498      -0.00769496       0.07866626      -0.01193401
Ar      11.36255225       4.13046898       0.24642986       0.00681097       0.02410812       0.00801129
Ar       9.98554016      11.85921440      14.60006804      -0.03346573      -0.05424418       0.00392974
Ar       2.70324085      16.28408383      17.04874606      -0.04146885       0.06112696       0.03074095
Ar       3.36907783       4.39007227       7.47683433       0.04815414       0.00276335       0.01966145
Ar      14.51077710       9.75246926       4.38543232      -0.06235979      -0.08789270       0.01937399
Ar       9.34441620      13.63683000       0.49880471       0.02834106      -0.01861468       0.02529223
Ar       9.55397499       1.24703127       5.71712666       0.04745050      -0.05126606       0.04413170
Ar       3.35888247       8.21039635       1.11516688       0.11598966      -0.05151955       0.00034899
Ar      14.96472305       4.60331643       3.08714083       0.03582084      -0.02507180       0.04937269
Ar      16.29292992       2.14279605       9.93195236       0.12242692      -0.00837196       0.10781309
Ar       5.85986478       3.68111133       5.24268840      -0.11174574       0.01782714      -0.00622331
Ar       5.64513789       6.63903239      15.95115837      -0.06958103      -0.08483588      -0.01664474
Ar       0.47627490       3.10349656       2.15640211       0.01805973       0.03281488       0.01158005
Ar       6.25695128       2.58741956       0.05951688       0.02490381      -0.07322485      -0.09256272
Ar       4.42837678       3.97625240      13.67812458       0.09116808       0.06161898      -0.00019311
Ar      11.23791609      16.16420618       8.92007009      -0.01336080      -0.04367017      -0.01320818
Ar       2.98177945      10.46942860      14.49096773      -0.19052689      -0.00022033       0.07150094
Ar      15.37421558      13.59972743       4.28645158       0.05759222       0.00365723      -0.04348527
Ar       8.55766237       3.51233472       2.82114292       0.03077179       0.02193046      -0.07570531
Ar       9.49463780       3.45354521       8.62274571      -0.01428581       0.02616362       0.07180435
Ar       3.87667957      10.11731829       6.70281429      -0.08837885      -0.04213432      -0.04960327
Ar       6.43390799      11.71330553      12.16366346       0.05941179       0.00400407      -0.00423238
Ar       1.53720464       1.60602575      13.37196041      -0.01382919      -0.05311600      -0.01726766
Ar      14.74770212       7.28774923      15.26558262      -0.02831123      -0.04683348      -0.02250822
Ar       1.04533290       7.01331266      14.21686957       0.00424950       0.08328649      -0.00989191
Ar       3.17283311       0.32842960       4.38738467       0.04942173      -0.03578654      -0.01280568
Ar       1.27853114       4.47768669      11.21598024       0.02447329      -0.04992601      -0.00600107
Ar      14.84669692      16.00880832       8.53737071       0.05575935       0.02317043      -0.03994890
Ar       6.01789288       7.27819313       8.28259799       0.02118595       0.03818714      -0.05412181
Ar      12.81525247       9.88100687      12.73820354      -0.00403253      -0.06128905       0.12396576
Ar      15.26202621       5.75984804      10.45336549      -0.02115222       0.08853878       0.01283997
Ar       3.39865109       4.89191980       2.10523377      -0.01170150       0.04305881      -0.01177635
Ar       1.78202926       3.71740639      16.13715340       0.03459619       0.01704268       0.08305868
Ar      16.44719175      10.30881763      14.79443941       0.01571193      -0.00636432      -0.00653431
Ar       4.07012424      14.54820589      13.61930334      -0.01038126       0.01712980      -0.01668230
Ar      16.90546391      16.90508419       5.68103824       0.01323486       0.11647865      -0.02047976
Ar      11.15286719      15.41097094      13.85357123       0.03558840       0.08871151       0.02527000
Ar       2.39346011       8.17335901       9.35271919       0.06779498       0.00163329       0.05102641
Ar       9.88124927       8.14197144      14.37253012      -0.05813201      -0.07435768       0.02205375
Ar       8.25615496       6.31107712      11.49413476      -0.05798613       0.02698862       0.01742605
Ar      12.39727532      14.96507105       0.42018595      -0.02067988       0.04691178      -0.05218694
Ar       5.97768027      15.36375369      10.25684281      -0.02202446       0.03854053      -0.03624156
Ar       0.62805153      12.78644465       7.39823511       0.01272882      -0.04788783       0.05324319
Ar      12.51628779      16.18333689       5.10770265       0.01182546       0.00965810       0.10921620
Ar       1.65649775      11.50171762       0.24128068       0.02769506      -0.01063112      -0.02382483
Ar      11.12488567       8.23992646       4.12361420      -0.02620814      -0.06994601      -0.00720273
Ar      13.62661782       7.54513486       1.59702852       0.02150655      -0.04458722       0.08975581
Ar       7.12576158      10.95767055       8.37436556       0.05609841       0.08837857      -0.02832478
Ar      16.77853500      14.73473405       0.21201452       0.05245668       0.04765335      -0.02817582
Ar      10.90672413      12.00418315       7.83611221      -0.03849953       0.04901809      -0.06116437
Ar      10.06827488       0.16253565       1.38565014      -0.03628020       0.04322798      -0.03653162
Ar      10.90395861       5.06842124       5.28216795       0.02028164       0.01933615      -0.00666965
Ar       3.90517096       7.36374464       4.64371234      -0.09054305       0.04416911       0.02093584
Ar       1.71898587      14.30647420       2.87617192       0.07833057      -0.05054394       0.08904311
Ar       5.05437894      12.16914982      17.07088844      -0.03926972       0.01764213      -0.12121563
Ar      11.86966937       6.22576809      10.66483979      -0.13846424      -0.02782255      -0.04071798
Ar      14.97928240       0.21567206       2.52985766      -0.01610674       0.00186229       0.02265666
Ar       5.24359947       0.70693171      13.72541734      -0.01376656      -0.03461423       0.04188949
Ar       5.72620252      17.03308629       6.78223824      -0.04320983      -0.03917967       0.06780328
Ar      16.87151545       9.41905921       7.50795518       0.05057881      -0.06536187      -0.08273783
Ar      15.39185733      10.32329304       1.23313062      -0.05324703      -0.11748687      -0.07609786
Ar      16.82642232       3.87389848       6.56236164       0.00431990      -0.11776698      -0.06256774
Ar       7.79555772      11.81598397       5.06851850       0.00051666       0.08775678       0.04996035
Ar      13.31247556       9.15661584       9.09822776       0.03626368      -0.00436072      -0.02456995
Ar      12.24981973       5.13243972      13.93306062       0.06633667       0.09501624       0.09001204
Ar      14.47463954      16.55359813      14.99488616       0.10035570       0.12250887       0.02104189
Ar       7.52801776       8.02519644       4.45605416      -0.01097315      -0.06237725      -0.00220452
Ar      11.20450593      12.04567795       3.73020704      -0.00420562       0.00528991       0.03822583
Ar       0.83272052      11.01101562       4.14726262       0.06188110       0.08577337      -0.07812639
Ar       4.75384456      13.76070070       7.11073805       0.03031677      -0.08673776       0.05352997
Ar       8.67446086       0.34220770      14.98632730      -0.05921244      -0.01947182       0.03930032
Ar      17.25173497       6.68448921       0.85272969       0.02892762      -0.06101967      -0.16033481
Ar       1.57253349      15.22950999      10.36870029       0.03257430       0.02985468       0.03593858
Ar       4.27178320      10.97914513       3.15790456      -0.05347839       0.07912651       0.01550169
Ar      13.74242843      12.60463720      15.25267152       0.05567662       0.01800718      -0.02784657
Ar      15.39516082      16.43092648      11.71862377      -0.00404401      -0.02330305      -0.10540046
Ar      12.95198745      13.13887080      10.95371516      -0.04469026      -0.02455456      -0.10675035
Ar       8.00076140      10.36636978       1.78929817       0.09573994       0.03178504      -0.00405017
Ar       8.71189430       4.65929703      14.61449433      -0.01207225      -0.05570567       0.06100198
Ar       8.45357402       6.20144797       0.43672815      -0.02183587      -0.01901617       0.01591577
Ar       0.14308508      14.92796964      13.80653187       0.01312853      -0.03074472       0.12026995
Ar       7.65845487      14.48061356      14.18522553      -0.00474113      -0.02534748       0.07119039
Ar      16.22313273      12.49875152      11.19457535       0.00657601       0.00527985       0.00022038
Ar      13.34964947       1.71499050       7.34811017       0.00771640      -0.00536674      -0.02105332
Ar       5.01460915       7.84017424      12.39920267      -0.00251938      -0.03588304      -0.06303491
Ar       6.82294010       0.54186473       3.53937186      -0.05171711      -0.03257778       0.04709310
Ar      11.56152287      10.46639096       0.53676366      -0.07093533      -0.00790740       0.01754800
Ar      17.02052231       1.02814279      16.86766762       0.04595628      -0.03608297      -0.00820536
Ar      15.19395577       3.05363748      13.60327918       0.02664099       0.00391205      -0.07147359
Ar       6.31033112      16.12646258       0.24804297       0.04817570       0.09985052      -0.11375049
Ar       2.56171358      11.80184129      10.63651886       0.00914872      -0.00785895      -0.01151099
Ar       6.89620539       9.75755048      15.62821942       0.00683252       0.04488614       0.02041800
Ar       8.72203456       0.77868929      10.95666723      -0.11569241       0.08357070       0.00680282
Ar       8.44562464      14.61837510       7.50597103       0.03606284       0.08786756       0.09478261
Ar      14.50494028      11.93234947       7.58752764      -0.05766965       0.01311514      -0.01685474
Ar      12.52522095       1.99967215      11.46400449       0.02520525      -0.00644821       0.00752974
