108
Lattice="17.35 0.0 0.0 0.0 17.35 0.0 0.0 0.0 17.35" Properties=species:S:1:pos:R:3:momenta:R:3 pbc="T T T"
Ar       5.84191618       0.54400118       7.17702412      -0.01746082      -0.03605877      -0.02920690
Ar      10.17064368       6.52628604       8.84640326       0.07351194       0.03717071       0.00311360
Ar      12.73255627       3.32861857       5.15805831       0.00303675       0.02922965      -0.07761764
Ar      16.61014256       7.59779561       6.89343019       0.02191211      -0.15958202       0.06135102
Ar       7.10571402       3.72071724       9.59480137       0.03795052      -0.03690790       0.00122417
Ar       4.13149345      16.39642559       3.25685173      -0.03448730       0.11699100      -0.11409936
Ar      16.08884740       4.86589721       4.26958773       0.01474656      -0.01685526      -0.06597380
Ar      14.15954919       4.69631817       7.92352030       0.02501217      -0.03238630      -0.02212897
Ar      11.68920135      17.04894140       5.50394403       0.01155203      -0.05436689       0.00927768
Ar      16.75304931       5.44617736       0.33820044       0.06936149      -0.01289939       0.00400712
Ar      13.78838445       9.79485234       7.81015464      -0.02237097       0.10005951       0.00568737
Ar       3.93668610       4.32434674       8.24143890       0.03751811      -0.04768435      -0.02395569
Ar      13.30585266       4.95505855       1.11985219       0.05749269       0.07579609       0.02142780
Ar       8.92679900       3.55724824       6.08243837       0.03337916       0.01337165      -0.02618234
Ar       9.51071420       3.10142882       2.73797655       0.04602319      -0.00647185      -0.01646669
Ar       2.34279473       5.80102910       4.87507672      -0.03458380      -0.11578374      -0.02294331
Ar       7.15069888      14.34800379       5.70634014       0.13794894      -0.10061578      -0.04092359
Ar      12.91544744      16.76745837       1.95678397      -0.01653298       0.04373073      -0.00517871
Ar       6.18823341       6.82385343       7.16736757       0.01990449      -0.00333209      -0.10125344
Ar       0.51216609       8.15933630       2.19413098      -0.01651264      -0.05923887       0.06708424
Ar      14.22936244       8.36987918       3.59599131      -0.01393962      -0.06693184      -0.03740283
Ar      13.18289558      15.39012987      12.05167055      -0.04897270       0.11354412      -0.07158340
Ar       5.92181432       3.80082060       4.61501692      -0.00849564      -0.05360152       0.06245657
Ar       3.58423862       9.10790270       4.68606628      -0.04086522       0.01811522      -0.03183246
Ar      15.65595398       1.86287399       2.41171416       0.00451314       0.17191511       0.07466963
Ar       6.64899317       3.35739723       0.51890757       0.05499276       0.01963179       0.04697143
Ar       3.94861159       3.43297982      15.83085608      -0.00526180      -0.02918039       0.04793931
Ar      10.84878692      16.05470296      14.89130124      -0.04080272       0.07847805       0.04578925
Ar       0.21644506       2.85200220      15.31265967      -0.04545959       0.00747220      -0.03605258
Ar      15.69466454       1.41496916       6.03702838       0.02667534      -0.06220827       0.06314801
Ar       9.44736329       5.58122252      17.32768414      -0.04117691      -0.02891885       0.02016968
Ar      10.86729404       2.94023618       9.30632455       0.09153301      -0.00174056       0.07307160
Ar       8.23045295       9.56977088      10.06516367      -0.01376957      -0.05386848       0.07566806
Ar       8.00868603       3.70068214      13.85028604      -0.00327556       0.05684284       0.03795660
Ar       2.29141468      17.06902611      13.34339566       0.00613899       0.07354568       0.02403665
Ar       1.75389593       8.79955993      12.31845888      -0.06768878      -0.08823307       0.05383741
Ar       2.21179403       6.51318158      15.70858162      -0.00283961       0.06694851      -0.01343869
Ar       2.25263875       1.92075801       1.84373769       0.08032645      -0.02187989      -0.02127763
Ar       4.77386344       6.04666607      10.96693808      -0.01490911       0.04897731       0.03696098
Ar       8.89816508       0.78392962      11.23617633       0.01148815       0.07683064      -0.06328442
Ar       2.77565395       8.29036965       8.90492159       0.03235635      -0.00982896       0.02125436
Ar      12.56145674       5.83448106      11.61791767       0.05561827      -0.05232652       0.06799030
Ar      14.98673347       3.10925764      11.83383316       0.06948438      -0.11314305       0.00511890
Ar       7.47742798       7.27879649       3.28909456      -0.01770963       0.09617402      -0.12613272
Ar       3.94467896       5.98919819       1.60511256      -0.05476656       0.08269560      -0.00991230
Ar      15.97642517       6.86588524      10.30071531      -0.07696193      -0.07072757       0.04874204
Ar       4.77858446      10.19084898      14.83551627       0.02004097      -0.04388491       0.08922972
Ar       1.56065289       4.93574858      12.23541290       0.01434458       0.08807331      -0.05770522
Ar      10.78889154       8.60386505      15.48311694       0.02518487       0.09700434       0.06360526
Ar       0.32281200       3.46505406       8.66706783      -0.05925830       0.06025939       0.09380077
Ar      12.13146482       4.74195057      15.07122603      -0.00353424       0.08101155      -0.02518362
Ar      11.74702172       1.75374529      13.09006480       0.01325318      -0.01229807      -0.10383578
Ar      14.91959274      13.83465065       3.20299805      -0.05328853      -0.05633794       0.02226616
Ar       4.38922774      16.74947876      10.35662731      -0.05919603       0.05956636       0.03740861
Ar       0.14062381      10.71302536       4.78253248      -0.06250593      -0.04794520       0.02300905
Ar      17.02832882      13.35157190       7.80110837      -0.06729337      -0.01039881       0.01266367
Ar       3.67082310       9.28026545       0.59480924      -0.02303114      -0.08434435      -0.11488104
Ar       8.04193740      11.07953105       3.52303928       0.01650490       0.07142009      -0.02482889
Ar      12.55182556      11.03111256       0.60585738       0.01681487      -0.05948568      -0.01210699
Ar       9.27892560       8.93698466       6.17984448       0.08287540       0.02781450       0.07443490
Ar      16.67251577      15.53404236       0.49119355      -0.00858245      -0.03883825       0.08111060
Ar       6.50782885      13.51193037       1.82984643       0.05830116       0.06421921       0.03600253
Ar      10.91340223       2.15670667      16.77966378       0.03265296       0.07221166      -0.03753721
Ar      14.45150203       8.10022651      16.71042986       0.00965860       0.06438591       0.05744068
Ar       6.37898822      11.05534990       7.01405984      -0.02399528       0.05707281       0.03411694
Ar      13.38080164      13.69651746       7.17263936      -0.07884930      -0.01765973       0.07597074
Ar       2.10449005      12.84954005      14.37187344       0.04093219      -0.03258179       0.02894234
Ar      12.01197626      10.96895073       4.68679150      -0.01812484      -0.06242092      -0.04617582
Ar       1.04451543      14.74259784       4.56601194      -0.08581760       0.03481024       0.00265844
Ar       9.12601130      13.43248647      16.60541358      -0.01107498      -0.10872782      -0.04987833
Ar       7.82218754      -0.01993517       4.00004757      -0.05080164      -0.09387747       0.03560919
Ar      10.81286292      16.06619079       8.87806307      -0.00069288      -0.05790986       0.00557129
Ar      16.18743138      11.89080992       0.00229384       0.02057192      -0.04940788      -0.08205948
Ar       0.31461373       0.31476375      10.28290031       0.12380672       0.08141438      -0.04137295
Ar       4.02261430      12.82289967       4.09352562       0.04033180       0.00793672       0.01782574
Ar       9.49169988      12.62201483       7.70055152      -0.02996840      -0.04496681       0.04812395
Ar      11.77506348      12.13605300      14.25671991      -0.07279149      -0.11331977      -0.00113841
Ar      14.16917966       1.65135518      16.41529456      -0.04554045       0.02338485       0.01407823
Ar      12.25370647       6.78792044       5.84416742      -0.03822355      -0.03377436      -0.07970458
Ar      10.25192189      13.85705385       3.85295776       0.09562550       0.04450880      -0.14879050
Ar       2.51621389      12.41137164       0.86798991       0.00831185      -0.06556573      -0.04655905
Ar       2.05935905       1.08066034       6.57314303       0.04669077      -0.08712447       0.03519002
Ar       7.07280872      17.29610437      14.79353670       0.00129874       0.03683069      -0.11995322
Ar       0.88253034       9.63279096      15.90403928       0.04480007      -0.03348564      -0.04840414
Ar       2.11209187      13.86156891      10.73940918       0.05432260       0.07635098       0.05104181
Ar       2.78696948      11.28129517       7.41368580      -0.00220034       0.04046583       0.00810029
Ar      11.13547710       9.13638425      12.09734597      -0.00594752       0.03490735      -0.04807111
Ar      17.19188013      10.42362191       9.95842382      -0.02293296      -0.02118731      -0.00444741
Ar      11.71211729      12.44397251      10.45392014       0.01435301       0.04704637       0.02273163
Ar       5.45816775      13.69271063      12.43562922       0.02004260       0.02886176       0.09951295
Ar       5.72939174       6.77994406      15.43327711      -0.03730156      -0.01211055      -0.07752518
Ar       7.80897772       9.52584049      17.16299723      -0.10654471      -0.04540498      -0.02582200
Ar      14.43586525       9.33285704      13.07731733      -0.01342592      -0.02024451      -0.05592697
Ar      15.88753650      12.84293943      12.44097393       0.00420747      -0.09457132      -0.01023506
Ar       3.21455601      14.89853971       7.33825608       0.01144984       0.05992471      -0.07928354
Ar      14.09996747       0.44119291       8.81906509       0.07209884      -0.06554822      -0.01900319
Ar       8.21184558       7.04682535      12.82416135      -0.05394789      -0.02592064       0.03971903
Ar       5.47783170      13.73896203      15.82217329      -0.00763402       0.12601984      -0.00390970
Ar      14.12439720      14.47499601      15.95673571      -0.11372168       0.02005809       0.04323688
Ar       3.19584397      16.32422936      17.01423565      -0.06275207      -0.00386968       0.05647185
Ar      15.75710664      17.30099625      13.57540952      -0.04917710       0.01427616      -0.03457122
Ar       8.84943021      16.83830422       0.84178093       0.11311846       0.03715809       0.06999831
Ar       4.89062727      10.36511166      11.24974591      -0.05938650      -0.04910796       0.01957439
Ar       8.22434579      10.54085800      13.68445687       0.02535377      -0.03369914       0.04006348
Ar       4.79996607       2.39548999      12.50720153      -0.05255888       0.01638117       0.02628761
Ar       6.66847440      13.63826414       9.27083073       0.06637123      -0.00157966       0.04236568
Ar       8.96938588      13.84839985      12.42456145      -0.04897771       0.05978287      -0.00369314
Ar      16.13865816       5.93870808      14.06961599      -0.04787313       0.00169318      -0.02766527
