108
Lattice="17.35 0.0 0.0 0.0 17.35 0.0 0.0 0.0 17.35" Properties=species:S:1:pos:R:3:momenta:R:3 pbc="T T T"
Ar       9.97432879       0.52932934       8.85399488      -0.06086966       0.00126825      -0.02440764
Ar       6.36167011      11.23903271      12.83516197      -0.04547236       0.01338171       0.02421057
Ar      14.68879247       1.96201379       3.79321432       0.09974801      -0.02087441      -0.07060420
Ar      17.23625105       5.00439048      16.06405421       0.00240311       0.05139578      -0.06001984
Ar       5.25161509       4.99679514       6.87804926      -0.10442864       0.08470163      -0.09726440
Ar       5.23052495      13.01133985       4.09472563       0.02599272      -0.01498099       0.06599076
Ar      12.44349339       2.83819999       6.79920769       0.03879308       0.05602409      -0.01699388
Ar       7.40521317       8.10839346       5.77479237      -0.04813592       0.08354148      -0.01001079
Ar       7.46921168      15.81799746      10.05524695      -0.04054000      -0.00045385       0.04602410
Ar      15.34077237       1.69371660       0.15882248      -0.08260230      -0.01961413       0.01810021
Ar      16.70217363       8.36797374       8.93228867       0.02226561       0.15101404       0.01751943
Ar       0.90000683       4.52877621       8.27441100      -0.09287283       0.10784424       0.00818852
Ar      12.13936284       4.23821015       2.86770746      -0.00766055      -0.04278542       0.05554113
Ar      11.40606281       1.26184869      17.05540356      -0.09477092      -0.03732001       0.01305067
Ar       3.07107732      10.18918896       1.22718077       0.02376276       0.02969130       0.05358421
Ar       4.20321555       7.85889494       4.32805150       0.03268467      -0.07064750      -0.07192457
Ar       9.76776228      13.72498270      11.83229898      -0.07324848       0.01882909       0.09933708
Ar      12.97099697      12.02583424       1.75028669       0.03881083       0.01763709       0.03681866
Ar       4.96953944      15.59790455       7.11666318      -0.09063695       0.01173126      -0.01285640
Ar       6.66524183       5.68512328      16.11865856       0.03567610      -0.16030292       0.04344860
Ar      16.15476878       6.09952952       5.38182861      -0.04415614      -0.05949461      -0.07967004
Ar       3.13681721      14.23685846      11.86304161      -0.01873654      -0.03556907       0.05867943
Ar      11.66384298       6.49033600       6.15231586      -0.01135744      -0.16895166      -0.07854646
Ar       6.63485234       1.00354729       4.66688458      -0.05888016      -0.06693357      -0.01602766
Ar       1.84450426       2.83472485      14.38019942       0.06220596      -0.03029421       0.01495611
Ar      15.10211974      10.24724546      16.42499195       0.03323629      -0.00561776      -0.00602837
Ar       1.04756245       6.22059623      11.75297566       0.12186075      -0.00496860       0.04603221
Ar      13.03485688       1.90824291      10.05102444      -0.13202061      -0.03862505      -0.01614751
Ar       6.18838680       9.38718356       9.41000681       0.01099594       0.05776944       0.04193588
Ar      17.04663094      16.56807049       3.47606628      -0.06537675       0.05943984      -0.02159074
Ar       1.62172762       0.26071589       0.68324076       0.00219149      -0.09529574       0.01330979
Ar       8.97609710       3.91723033       5.08437075      -0.08102535      -0.01225052      -0.02808247
Ar      13.15284100       8.25699017       9.67938309       0.01652769      -0.12163753       0.00076385
Ar       5.25497642      12.62770774       9.83145275       0.06716911      -0.00354068       0.00320539
Ar       3.57506863      16.15679257      15.23150726       0.06195242       0.04949026      -0.03394374
Ar      16.37892506       3.04954109      11.86321930       0.01274123      -0.08848850       0.03642680
Ar       3.62185161       3.16251774      10.29224734      -0.04439947       0.01481059       0.01901940
Ar       2.38395264      13.80173348       1.03512191      -0.08251177      -0.01374667      -0.09473750
Ar       3.93400715       5.61011336      13.65612303       0.00366409       0.08227501       0.04039329
Ar      16.17951436      15.05840109      11.34144585       0.00186047      -0.03802511      -0.06862928
Ar       4.12395733      10.58187139       6.44336773      -0.00016655       0.00893700      -0.05713460
Ar       9.87969455       3.36710997      14.58303913      -0.01676423       0.01631738      -0.05744372
Ar       5.91751756       5.65607066      10.66927824       0.08866584       0.08509258       0.00169048
Ar       3.03222230       5.46075037       0.16260702       0.03180950       0.14110237      -0.04197875
Ar       4.71028659       1.70590900      17.34238127       0.05464149       0.01222533       0.04707624
Ar       3.23332787       9.44865417      11.68150955       0.05127538      -0.04438610      -0.02820461
Ar       5.71190625      14.51858135       0.84481027       0.00161760      -0.02365915       0.10739590
Ar       3.32229137      17.04722163       3.91582645       0.06851823      -0.01323694      -0.14308979
Ar      13.64540423       3.82851654      14.58165603      -0.03285318       0.01267608       0.01536695
Ar       0.05420334      14.95719819       7.74246370       0.01330555      -0.01067198      -0.09996126
Ar      11.40854653       6.25832537      12.68649182       0.06591971       0.00375381      -0.00979119
Ar       9.28436885       7.32931577       9.09029759       0.01321412      -0.16046535      -0.02346252
Ar      13.48389448      15.91978163       2.74468564      -0.03209268      -0.01300761       0.05065567
Ar       6.42846614       3.10668556      13.07235798      -0.03045417      -0.01126697      -0.09521471
Ar      14.92447496      13.59057492       5.06875162       0.00030603       0.01151505      -0.05321155
Ar       9.66982878       3.99256102      10.56673485       0.03656987      -0.01423382      -0.00112979
Ar       5.43694480       4.53759712       3.26748880      -0.01677939       0.00773549       0.06181320
Ar       9.02289521      13.13632542       2.21229152       0.04949700      -0.00203886      -0.04430087
Ar       9.86368829       7.08220185       2.89082515      -0.03599969      -0.08657915       0.00336725
Ar       7.63861317      11.72977231       6.51813845      -0.04515444      -0.08416403      -0.10937147
Ar      16.62229052      14.57693503      16.64159179      -0.11687275      -0.02032528      -0.02681191
Ar       9.75540021      12.34703272      15.38658373      -0.05555483      -0.06917182       0.06938557
Ar      11.04670798       1.01324706       3.63662972      -0.06469693       0.05882894       0.01740596
Ar      13.04883978      15.48335607       9.92729459       0.06897810       0.08611680       0.03592642
Ar      14.18407686       8.94792389       6.12002034       0.02345398      -0.01424464      -0.04042431
Ar      16.88697575      10.78857803       2.35629278      -0.04965357      -0.03380878       0.08152171
Ar       6.86225775       7.91510271       1.54204002      -0.04326805       0.05283098      -0.04693287
Ar      11.01863853      10.61322013       4.77856160       0.06947209       0.01311445       0.07330572
Ar       0.11743989       3.73666758       2.48560368      -0.05137537      -0.02737557      -0.06061165
Ar       4.63505024       0.25159377      11.86435172      -0.07241104       0.09047939       0.00170599
Ar       3.50440536       1.65003069       6.88651951       0.03831513       0.00538912      -0.09666626
Ar      11.34599412      11.65451568       8.71831246       0.00072012      -0.09755401       0.05551287
Ar      12.43608053       9.02574092      14.06795736       0.08555519       0.06346707       0.07189706
Ar       2.24660718       4.88995919       4.76939922       0.05538159       0.15017607       0.06066461
Ar       3.02951506       7.57999893       8.13240605       0.04363251       0.00757399       0.08272083
Ar      10.23004758       9.76147991      11.28741953       0.01744095       0.02196208       0.05415038
Ar      11.07134386       6.26900704      16.81619076      -0.05864200      -0.03051804       0.00471436
Ar      17.12546479      17.19293595      14.13333818       0.05007537       0.01245518       0.03401795
Ar       0.68756352       9.32373686       5.68764492      -0.00113579      -0.03722445      -0.08371772
Ar      12.87818650      14.97292609      16.48370941      -0.09239068       0.06168148       0.06955575
Ar      11.76284878      14.74869716       6.07598584       0.06617181      -0.01107700       0.00311426
Ar       1.48178110      13.01970118       4.64645308      -0.10406708       0.03444529      -0.06646316
Ar       8.45425158       2.92936423       1.33802946       0.05880481       0.10920676       0.10484783
Ar       0.21311575       7.18354905       1.58065163      -0.02998445      -0.01423267      -0.04030526
Ar       3.94003213      12.39749410      14.85751622      -0.01203756      -0.02396936       0.02102255
Ar       6.69921987       2.39624907       9.23835825       0.00732912      -0.01376087       0.00117132
Ar      13.45064663      13.48352008      13.29410561       0.10692975      -0.01663800      -0.03088339
Ar      15.14545652       9.97853686      12.23811813       0.08992110      -0.02942959       0.06872012
Ar       6.42191334      11.10528142      17.02114781       0.01609875      -0.01754257       0.06295084
Ar       8.64840409       8.79698573      14.50571845       0.01338465       0.00249617       0.06565457
Ar      14.76586038       5.05998006       8.61985005       0.07529061       0.03537585      -0.00390189
Ar      13.32630871       7.90298751       1.63381283       0.04909937      -0.01184457      -0.03145138
Ar       0.46723773      12.33618337      13.43379886       0.00726410      -0.02775710       0.02199504
Ar       9.40861676       0.64994723      12.45047639       0.02331201       0.13239760      -0.03217287
Ar       1.14916712       8.80087048      14.92917376       0.01969962       0.01104213       0.05099994
Ar       0.07107157       1.62307768       6.00149720       0.04372143       0.00534176       0.02734589
Ar       5.13129483       8.71083879      14.99059842      -0.03144142       0.00258182       0.03012784
Ar       8.55551740      16.48203297       2.12520916      -0.00269038      -0.05632948      -0.07464638
Ar      10.16321237       9.75858855       0.61505352       0.00572663      -0.01646697       0.01527578
Ar       1.56042978       0.10495082       9.80381295       0.06102924       0.01295273      -0.01774128
Ar      14.98561464       6.56075783      12.83932706       0.02183748       0.03240847      -0.03520660
Ar       7.90956693       0.51330177      15.73153207      -0.06851746       0.02192182       0.03519515
Ar       1.21663130      11.14266466       8.95494052      -0.01024698      -0.02531768       0.01430236
Ar       7.02981273      14.86878091      14.17877507      -0.02766026      -0.06447122      -0.05791406
Ar      13.40720306       0.08297819      13.36014771       0.01150172       0.07318060      -0.05886928
Ar       7.97334042      15.40472832       5.56149037       0.07425345      -0.07898110       0.02496472
Ar      15.08634769      12.08230986       8.19241006      -0.04244378       0.01090050       0.01523355
Ar      14.27551118      17.11732505       6.61399213       0.03077420       0.05364200       0.05719190
