108
Lattice="17.35 0.0 0.0 0.0 17.35 0.0 0.0 0.0 17.35" Properties=species:S:1:pos:R:3:momenta:R:3 pbc="T T T"
Ar       9.72337263      15.69216586       3.80294911      -0.01263742      -0.01490493       0.04124077
Ar       9.73346382       9.69979333      11.68166634      -0.13075071       0.04288346       0.00851131
Ar      11.44356818       1.66349683       4.26872668      -0.00877797      -0.04429139      -0.02241318
Ar      17.31552086       6.76791389       3.97299826      -0.03395618       0.05513858      -0.02102718
Ar       5.72825832       5.72738537       8.74943153       0.06039347       0.02590153       0.02730929
Ar       6.36448442      14.08229039       4.12714129       0.05659956      -0.00904233       0.06347611
Ar      12.57172655       3.91900644       6.78165639      -0.05803844       0.00727177       0.06884181
Ar      11.89591998      10.26713259       6.70526120      -0.07824099      -0.14227531      -0.04462440
Ar       8.90048379      14.77670442      10.61105022      -0.02946116       0.01014452      -0.01556307
Ar      13.13248281       2.43987261      16.37079832      -0.05563967      -0.04588028      -0.00337381
Ar       1.26608713       9.37010420      11.70084818       0.06858606       0.05386061      -0.03533482
Ar       1.76491701       2.35854961       9.73844492       0.10195014      -0.03665985      -0.08012547
Ar       9.86922960       4.67512181       1.77105862      -0.03654895       0.03515504       0.03895098
Ar       9.63510899      12.72390470      13.47288191      -0.04114364       0.08855323      -0.00958134
Ar       3.37697590      14.30219614      17.33675971      -0.00251244      -0.06602072      -0.04474103
Ar       2.57391746       3.91241572       6.74351704      -0.10322660      -0.00161499      -0.00200713
Ar      13.63464733       7.10144767       5.31814107       0.03616491      -0.00851075      -0.04273260
Ar      11.33280016      13.43572774       0.37253036       0.05089947      -0.06356400      -0.01500349
Ar       9.98819323       0.57810057       7.70450036      -0.09384549      -0.03256114       0.03562097
Ar       4.51323819       7.98269888       0.10422599      -0.07214718      -0.00004871      -0.01894756
Ar      13.67441272       4.62412388       1.77519294      -0.03228749      -0.02184814      -0.00896548
Ar      15.64626639       1.97702670       9.10050143       0.03976248      -0.01941553       0.00553197
Ar       7.05416614       4.83059159       4.78762513      -0.00834834       0.08764641      -0.06308484
Ar       6.97093343       4.98364788      15.21567878       0.04416033       0.01167241       0.04330973
Ar       1.71131919       3.80863839       2.65196923       0.07362729      -0.04211209      -0.01108247
Ar       6.99782329       0.14406768      17.23226168       0.00481698       0.04204061       0.05846397
Ar       4.65821084       3.70011351      11.75086939       0.00691392      -0.00421039       0.00058439
Ar      12.27806315      16.95151451      10.43006430      -0.00690311      -0.01980500       0.05870137
Ar       2.74168090      10.74937095      15.50741050       0.04991180       0.04108597      -0.01424511
Ar      16.04315288      14.71090991       4.30878133      -0.10168799      -0.02539589      -0.01151610
Ar       5.87773975       3.39472449       1.69372122      -0.02490706      -0.03814160      -0.01753345
Ar       9.17525989       3.99007918       7.81846386       0.02554475      -0.03575569      -0.02934938
Ar       0.44475920       8.56067435       7.03722252      -0.06337772       0.05289752       0.09124164
Ar       5.63877584      13.13151357      10.42114216       0.01610687       0.14389344      -0.08037945
Ar       0.83692468      16.61754119      13.71749036       0.05577021      -0.05479211       0.05067864
Ar      15.35199913       5.58356839      15.84331862       0.05690069       0.00510526      -0.09100234
Ar       3.27919421       6.16938632      14.69177635      -0.05655843       0.00050704       0.05680953
Ar       3.63460395       0.78368687       4.33132306      -0.01294972      -0.04912875       0.10620513
Ar       1.31937749       3.23699482      13.09300174      -0.03685421       0.10305226      -0.00376300
Ar      15.16974683      15.37357069       8.89130747       0.01683440      -0.01613805       0.05393993
Ar       4.96402061       8.64142982       6.98570807      -0.06561882       0.11873737       0.01720209
Ar      12.93034137       7.58508477      13.56321969       0.02886259      -0.02729902      -0.06130702
Ar      16.93218608       5.95675146      12.43923469       0.05834784      -0.00022906      -0.02353260
Ar       4.13735817       6.75948116       4.07978530      -0.00998993      -0.02613901      -0.04031949
Ar       3.82107118       2.62148959      15.74667664       0.07875068       0.05207628      -0.01162369
Ar      16.58729413       8.88169104      14.76828991       0.07847774      -0.04656207      -0.02263797
Ar       3.40586523      14.21922724      13.45081555      -0.01785165       0.00425754      -0.08431135
Ar       0.81639564       0.16759028       6.39447821      -0.07180642      -0.08245222       0.07013609
Ar      11.69835586      16.24037355      14.11286977       0.07344206       0.00840853       0.04163388
Ar       2.26616044       6.51305254       9.90246518       0.07667931      -0.04858910      -0.01942393
Ar       9.28832633       7.69622300      14.63858719      -0.12062287      -0.01461176      -0.04166492
Ar       8.38399474       7.71275068       7.71874192       0.01993890      -0.01075260      -0.07770181
Ar      13.51454570      16.41091734       2.23773663       0.06302215      -0.00281511      -0.09954564
Ar       5.75317716      16.54637006       9.98320661       0.10928791       0.00652652      -0.01271182
Ar       0.50126532      13.60519646       7.21253616       0.01385461       0.00071557      -0.01078756
Ar      12.21476561      13.78995789       6.28275992       0.03017556      -0.00242040      -0.02515298
Ar       1.06575121      11.67955896       1.29678631       0.01606163      -0.02480110       0.01403311
Ar      11.01107561       8.34376541       2.31613266       0.08316339      -0.08765621      -0.02068440
Ar      11.95449553       6.59987486      16.68251777      -0.01010742      -0.06842960      -0.05367633
Ar       8.73806925      11.48098725       8.80951642      -0.06985458      -0.01439598       0.05638192
Ar       0.69767005      16.45846193       0.80419219       0.00844639       0.01128536       0.10539709
Ar      12.09057273      13.25953970      10.35273874       0.05385118       0.02302173      -0.00827536
Ar      10.50252570      16.93504322       0.32698662       0.01464597      -0.02290780       0.03781743
Ar      10.28742161       6.25765099       5.16412042      -0.06880492       0.04717058       0.03773753
Ar      17.10832003      10.37274563       4.30693027      -0.08027296       0.08262869       0.00496586
Ar       2.82143628      14.20284986       3.74970464       0.12329992      -0.03015909       0.01897912
Ar       4.97313055      11.42320117       0.96156533       0.04277261      -0.01690128      -0.05503997
Ar      11.40246005       6.71153456      10.41459230       0.05465428       0.12365110       0.01483323
Ar      15.85067269       1.87758019       2.23102205       0.03075001      -0.03067224       0.05823435
Ar       4.64285015       0.30847144      13.20282074       0.01767795      -0.01849406       0.00767708
Ar       5.46946758       2.05837390       7.70505780       0.00318563       0.02476402       0.03289477
Ar      15.12842490       5.50312356       8.46497366      -0.09841736       0.00143454       0.02572553
Ar      15.14848928       9.10366224       1.05005774       0.06980228      -0.00549371       0.08020007
Ar      16.63722864       3.57401622       5.35734227       0.01024223      -0.02225260      -0.07864190
Ar       7.29111179       9.34580148       4.48029148      -0.03101294      -0.01755233      -0.04130590
Ar      15.39014409       8.94619275      10.70713224      -0.01752764       0.06208647       0.05972267
Ar      11.44335134       4.21097774      13.97745443      -0.06361919      -0.05255214      -0.05037452
Ar      14.94299708      16.50091985      16.46290295       0.04850099      -0.10424484       0.05285506
Ar       3.60284699      10.55514894       3.85915601      -0.04971908       0.05244398       0.11029541
Ar      15.08244334      13.15563547       1.22950791       0.05390090       0.01577833      -0.03657726
Ar      13.41000077      11.17881043       3.63083956       0.08640704       0.00367544      -0.05392055
Ar       4.39478770      15.67965326       6.69006349      -0.01968394       0.00865726      -0.06626644
Ar       8.29893431       1.89999709      14.68069037      -0.04039015      -0.00414204      -0.06376785
Ar       1.10208474       7.07231486       0.20395487      -0.03094941      -0.01922967      -0.06147805
Ar       1.27387833      16.04220412      10.29390625       0.00939118      -0.00698203       0.05109472
Ar       3.65567362      12.16681392       6.73164673       0.02103630       0.04004640       0.07867710
Ar      13.53933027      13.27685489      15.18347674      -0.05384575      -0.00262777      -0.07046114
Ar      15.04802024      16.71488857      12.42501029       0.07049103       0.07823993      -0.02000002
Ar      12.92874189      11.07669808      12.77496922      -0.06152473      -0.01401767       0.05279387
Ar       8.33724277      10.01262513      17.22241768       0.01047047      -0.03076884       0.03753941
Ar       8.15205092       4.57110581      11.39778610       0.05331759       0.01056717      -0.05809936
Ar       7.25538433       6.93403253       1.79706633      -0.08424293       0.07723158       0.10367731
Ar       0.16145432      13.49866363      15.44915191      -0.00842827      -0.03723986      -0.02884063
Ar       7.05279453      14.89203669      14.27244453      -0.01156312       0.09177978       0.00569203
Ar      15.82606643      13.32924048      11.63398810      -0.00119771       0.02707368      -0.03445137
Ar      14.46272418       0.38318183       5.92644577       0.02048949      -0.04464845      -0.02792217
Ar       5.94434113       7.37767317      12.20363235      -0.05083762      -0.06720781       0.01326379
Ar       7.37303401       0.94652278       4.87490633       0.09069883       0.04227008      -0.00951088
Ar      12.23931920      10.27268138      16.87468482       0.00833915      -0.05001863      -0.04246056
Ar      -0.01227060       2.08841682      16.39542616      -0.09855517       0.08103829       0.13192269
Ar      14.83299659       3.12895852      12.95585759      -0.03673792       0.01402515      -0.04334340
Ar       7.38274552      14.03582010       0.88424211      -0.02935517       0.03486731      -0.04756226
Ar       2.07582451      12.18462060      10.06296262       0.06918207       0.06492823       0.03607430
Ar       6.76918404      10.44798626      13.45741814      -0.06210636       0.03563835      -0.01403443
Ar       9.24690019       1.19500929      11.56960905      -0.09584818      -0.08713723       0.00898966
Ar       8.46588046      14.75684824       7.12070323       0.02843353      -0.02529919       0.03382211
Ar      15.29490657      11.26325393       7.67339890       0.03597400      -0.05216783       0.03233008
Ar      12.42753229       3.33132967      10.25549701       0.03032434      -0.03984692      -0.03820467
