108
Lattice="17.35 0.0 0.0 0.0 17.35 0.0 0.0 0.0 17.35" Properties=species:S:1:pos:R:3:momenta:R:3 pbc="T T T"
Ar       8.26142034       2.07355390       7.22339715      -0.00260907       0.04094499      -0.03388736
Ar       9.25838441       7.58039357      12.75614691       0.13606016       0.01604949       0.04009468
Ar      11.13844034       3.45782236       5.53152132      -0.10470725      -0.03330691      -0.04661541
Ar      16.60860725       7.51562858       4.42011488       0.11649828      -0.06523378      -0.03571036
Ar       7.17111396       3.41773214      10.85264261      -0.13312012       0.04341285       0.06543524
Ar       3.62457434      13.13552357       4.86593297      -0.08411287      -0.03436402      -0.00968152
Ar      14.53642533       4.15751224       4.21705830       0.03926406       0.08127535      -0.04543531
Ar      13.38797333       5.45269689       7.50977348      -0.00856105       0.04366979       0.01996602
Ar      10.39518109      16.94553854       5.69922834       0.07576358       0.01620947      -0.08228882
Ar      16.15583172       5.84855618       1.52869156       0.05662543       0.05241850      -0.06686584
Ar      14.62417343       8.95826432       7.42898846       0.04193957      -0.00195617      -0.01143964
Ar       2.46788723       3.00387882       7.89431170      -0.00715638      -0.05099805      -0.10967092
Ar      11.48774115       5.00473061       1.80113702      -0.00980828      -0.00854782       0.02739862
Ar      10.45468535       7.44090631       8.64384964      -0.07921528      -0.02300770       0.01733926
Ar       6.71731114       0.94917389       3.02104726       0.00218860      -0.08392424       0.07569442
Ar       1.99202718       4.75867713       4.64704728       0.00330859      -0.04908362       0.04677347
Ar      10.86443145      11.29099000       4.94806896      -0.05022421       0.06053596      -0.04977675
Ar      10.97846919       0.97654945       2.70907227      -0.06685336      -0.04552398       0.11460517
Ar       7.22356329       5.66827904       7.81418271       0.06726128       0.01404934      -0.00657764
Ar       2.23046770       6.81254776       1.79054555       0.04243992      -0.01140850      -0.08383507
Ar      12.38577856       7.67737689       4.76474695       0.09708307       0.05673658      -0.06825612
Ar      13.79886069      16.56970045      11.25360406       0.00560965       0.02946816       0.10580400
Ar       5.16549841       3.12111850       5.55467776       0.01038340      -0.01787215       0.02847377
Ar       5.06678875       7.09623499       3.53182433      -0.00109077       0.06798460      -0.06372730
Ar       0.30227130       2.77917862       1.78308863       0.04191646      -0.06623000       0.04213823
Ar       7.49355828      16.77451009      16.69088909      -0.00289170      -0.10485689      -0.07316553
Ar       5.16382791       1.83475164      14.97410048      -0.03330337       0.12216633       0.11705300
Ar      10.94669050       0.60074503      14.74785418      -0.05733801      -0.06169524      -0.03468435
Ar       0.89817936       1.45221891      15.64584501       0.02862142      -0.01533141       0.02251401
Ar      13.86479684      17.23227721       4.98887355       0.01436519      -0.02438777       0.03177467
Ar       6.73203558       5.61572048       0.62514635      -0.04442513       0.09232187       0.03041663
Ar      11.08708668       3.78295894       9.60510000      -0.03422150      -0.01291615      -0.04342417
Ar       6.67308500       8.55682237      10.50130661      -0.03417029      -0.03579695       0.03301117
Ar       6.81815536       5.01254255      14.07229585      -0.08119472      -0.14146813      -0.05355309
Ar       3.60308125      16.86531759      11.14588849       0.04330240       0.08262427      -0.07781056
Ar       1.00813797       7.52042062      12.45488120      -0.03023308       0.00244458      -0.16861699
Ar      17.12363726       4.42106870      14.28415439      -0.05716176       0.01305024      -0.01634283
Ar       2.59284219      17.22810474       2.91363775      -0.08878452       0.01541793       0.01306708
Ar       4.34160074       6.04125964      11.40557288       0.06708209       0.01710838       0.03788441
Ar       9.66681851       0.11284624       9.91555376       0.08302833       0.03797174      -0.00245358
Ar       3.76443569       6.72696334       7.71712513       0.03642696       0.00790913      -0.01355022
Ar      15.32805813       6.34354107      11.32122996       0.05164157       0.00029610       0.01059665
Ar      13.72814310       2.49883408      12.54712891      -0.07104011      -0.00782297      -0.01211536
Ar       8.53473140       4.69297168       3.99256107       0.01341950      -0.06111194       0.00532784
Ar       3.93841512       3.46120539       1.64643292      -0.02317877       0.01943494      -0.00566538
Ar      16.25259461      10.27242907      10.79873674      -0.00693457       0.00162222      -0.06687969
Ar       1.42116482      11.21959554      14.97333415      -0.10113282      -0.06479015      -0.02239375
Ar       1.75010467       2.90125263      11.69810928       0.07009544       0.05707231      -0.01313642
Ar      11.26597623      10.34312015      14.81747559       0.01347653      -0.00892071       0.03487378
Ar       0.19901262       7.00835387       8.72696382      -0.08050823       0.10003450       0.05306704
Ar      10.25184884       6.49860113      15.97274878      -0.04599871      -0.05331746       0.03635761
Ar      10.69616107       3.86928691      13.17991677      -0.00361710       0.05280315       0.02451867
Ar      17.14986174      10.83718705       0.87884441       0.05457943       0.02699110       0.03585338
Ar       7.37403697      15.29022498       8.63135261      -0.00694641       0.05014454      -0.02319177
Ar       0.55859924      10.07221784       6.39734394       0.00620178      -0.10647682       0.05950519
Ar      17.14431049       0.86173773       9.54230139       0.06147503      -0.00073983       0.10567366
Ar       3.63059428       9.52654776       0.16574907      -0.01886167       0.05467422       0.03030979
Ar       9.92163814      12.02095487       0.19504287       0.01785499      -0.05985250      -0.09336817
Ar      14.22064822      12.84585323       0.34061627       0.02327632       0.01593252       0.03665214
Ar       7.97425802       8.98903750       5.78932172       0.10299084       0.09551409      -0.10598332
Ar      14.92749372      16.94554820       1.70407224       0.00478853       0.03134200      -0.04729250
Ar       9.27122324      14.23392047       3.17691669       0.00331307      -0.04821404      -0.07305185
Ar       9.02763184       2.84708890      16.72603481       0.02611525       0.00685946       0.03324594
Ar      12.80603100       8.65373088       0.12287992      -0.08458857      -0.06057092       0.03257116
Ar       4.74776424      10.62416607       7.44289294       0.01985789      -0.05195133      -0.03861898
Ar      14.98642415      15.05354502       7.60747661       0.08154260      -0.06935714       0.08244685
Ar       2.61316486      13.18276034       1.10767489       0.00952920      -0.05947593      -0.03154955
Ar      14.25611511      11.03158164       4.00845670       0.00111057       0.01601892       0.00525256
Ar       0.22891426       0.49136483       5.33695387      -0.08805774       0.08623069       0.03745799
Ar       9.15940447      14.30464730      14.50337953       0.00791816       0.00069022      -0.03629075
Ar       6.06577464      15.82651688       5.39590096       0.02908551       0.00640330       0.07342270
Ar      11.08803536      14.20008987       7.73152668       0.04149991      -0.11585841      -0.03282798
Ar      17.04744646      14.82618755      16.97812252       0.05022436      -0.02046413      -0.04610346
Ar      16.25153907       3.50196970       7.45913926       0.06637523       0.01639154       0.03812857
Ar       6.62675750      10.81865690       2.10987848      -0.07355834      -0.00832041      -0.01628515
Ar       9.25882604      11.23363074       8.79582983      -0.04840481       0.01586015       0.02266812
Ar      12.79553210      14.21175229      14.50222199       0.04020120      -0.05041952      -0.05764749
Ar      14.51888776       2.97567293       0.04384593      -0.05837597       0.02236283       0.01008655
Ar       9.77743325       8.72612684       2.18206535       0.06876716      -0.00874634       0.03907996
Ar      12.92041761      14.15411213       3.13655803       0.02026372      -0.03521901      -0.00455855
Ar      17.01780094      13.99307555       3.80337099      -0.00538199       0.00963822      -0.00223449
Ar       2.22491476      15.88951041       7.57413716       0.05415978      -0.08543738       0.03677130
Ar       6.81347520      16.42294544      12.37828130       0.01488553       0.03454949       0.06585878
Ar       0.45927883       7.65746722      16.19766911       0.00360475      -0.02840341       0.03731355
Ar       5.37369867      12.66640491      11.24641534      -0.05283054      -0.04961265      -0.02013338
Ar       2.36611857      10.08170999       3.58756375       0.02503372      -0.00838058       0.01387689
Ar      12.38778310       9.95221865      11.15313044       0.04164378       0.01327860       0.05327594
Ar      15.87947033      13.21287792      13.91672375      -0.06943294       0.01493541       0.00301549
Ar      14.11403953      13.09129464      10.35049174       0.01093132       0.01340707       0.08477709
Ar       5.92092200      13.27648046      15.97601631      -0.01756080      -0.03525603      -0.06316695
Ar       3.09432756       4.70290038      15.39696999      -0.07618841       0.01352348      -0.03379073
Ar       7.36270987       9.46578743      16.35751047       0.02607582       0.04758321       0.04402032
Ar      14.81524398       9.62227168      14.57323633      -0.07974352      -0.04781945      -0.00761352
Ar       2.98915113      14.06639710      13.08119445       0.08150947       0.05386082      -0.00622665
Ar       1.13767492      13.50012754      10.05378275      -0.17003679       0.04139178       0.04848347
Ar      13.36874599       1.24637384       8.43427859       0.08488063       0.03269605       0.00703124
Ar       4.09055987       8.64795099      14.20554124      -0.08106999       0.05680401      -0.01658652
Ar       5.61848748      15.21073224       1.74979908       0.04522454       0.01820868       0.02997001
Ar      14.93076894      17.28726894      15.24855761       0.03799510      -0.00779267      -0.05472695
Ar       3.24003176      16.22643506      16.07253399      -0.00081327      -0.02489656       0.15490196
Ar       0.40042464      16.25127474      12.55261125       0.00455295       0.01626402      -0.00877092
Ar      11.05959921      15.49554553       0.15746481      -0.07856488      -0.05637509      -0.00002966
Ar       2.61694801      10.09150749      10.63809958      -0.00614053      -0.01663815      -0.01816330
Ar       8.15031734      10.86643740      13.26736943      -0.03543748       0.02879336      -0.00300990
Ar       5.32275048       0.61492636       8.40977661      -0.06061989       0.08517846       0.00587553
Ar       7.22558295      12.64629983       6.18674512       0.09806846      -0.00825918      -0.06768522
Ar      11.03902882      14.83880011      11.48742758       0.07174454       0.01217632      -0.02019431
Ar      13.89574420       5.57658323      15.38385908      -0.03887506       0.06567290      -0.01504955
