108
Lattice="17.35 0.0 0.0 0.0 17.35 0.0 0.0 0.0 17.35" Properties=species:S:1:pos:R:3:momenta:R:3 pbc="T T T"
Ar       8.90894279       2.19316440       6.57607062       0.04745203      -0.00032694      -0.06698973
Ar      10.20580463       7.43007321      12.49472276      -0.07795477      -0.02784984       0.00241876
Ar      12.36446137       3.05062661       5.67941918       0.01489064       0.11803806       0.02412388
Ar      17.10424982       7.72109309       4.64309770      -0.06717964       0.05492856       0.04066871
Ar       6.43413978       3.30588380      10.66237123       0.01999107       0.02571625       0.03321513
Ar       2.94127376      13.25533082       4.93014684       0.00347341      -0.03230255       0.03200048
Ar      15.15579940       4.45955451       4.03991577       0.06046989      -0.00853779       0.00759720
Ar      13.03756905       6.22616063       7.54411077      -0.04080960       0.07770445      -0.05886732
Ar       9.93368799      15.88356951       6.88089020      -0.03171846      -0.10816025       0.04443367
Ar      15.46919032       5.71790359       0.35837883      -0.04852064      -0.10457992       0.01692625
Ar      13.98683409       9.86448492       7.32367942      -0.02450543       0.03622370      -0.00717977
Ar       2.53173615       2.65715929       8.10367312       0.05717385       0.05812242       0.05565789
Ar      11.45322350       4.92612602       2.50206120      -0.01019466       0.00429318       0.04987269
Ar      10.40436676       8.30197354       8.91984271       0.05069249       0.04397945      -0.04652212
Ar       7.53538449       1.19187190       3.00443213       0.02314681      -0.00015560      -0.01992896
Ar       1.46059343       4.32289767       4.47354345      -0.10021520       0.02173541       0.00567921
Ar      11.56754801      10.89746566       3.88668836       0.04845679      -0.12948662      -0.08091479
Ar      11.24698557       1.03184178       2.12748208       0.10514577      -0.02048521       0.05876966
Ar       7.22449137       5.71010471       7.27883440       0.00242528       0.03936747      -0.01913650
Ar       2.30347663       6.47872907       1.29542057      -0.07960524       0.00015645       0.02520971
Ar      13.47188990       7.64280740       4.11375560       0.04567843       0.00414290       0.04989015
Ar      14.53892166      16.36377520      11.27130100      -0.02701712      -0.02872213      -0.01100100
Ar       5.14294183       3.59724313       5.65505066       0.04435629      -0.01151819       0.13070927
Ar       5.64435417       7.56282386       4.05422253       0.00304418      -0.07943912       0.02783975
Ar      17.01871335       2.44759918       1.97968089      -0.07434102      -0.03391428      -0.08076457
Ar       7.31844408      16.44998051      16.80687430       0.04231386      -0.01503618       0.09215051
Ar       5.08342368       2.12894327      16.01390732       0.06029823       0.09656301      -0.08142756
Ar      10.62775249      17.07126907      13.56866684       0.01497494      -0.01993914      -0.07773988
Ar       1.21398095       1.63300555      16.21996130       0.01106619       0.06573244       0.08300520
Ar      13.84758846      17.23794956       5.37717132       0.02021687      -0.05822219       0.00602551
Ar       5.51818970       6.49538894       0.49408793      -0.13902556       0.02675444       0.02637029
Ar      10.22027327       4.67981818       9.35897829      -0.07289726       0.03871423       0.04355261
Ar       6.64166653       8.58865009       9.98038354       0.02963547       0.00712607      -0.15915575
Ar       6.64285731       5.11428552      14.75644433      -0.01333153       0.05059006      -0.00897059
Ar       3.36600976      17.28289245      11.29234677       0.05030018      -0.02997491       0.00103887
Ar       0.79521893       6.88224769      12.14853691      -0.03750131      -0.05890464       0.01110654
Ar      16.28677305       4.33346896      14.28921371      -0.00852525      -0.03658141       0.03407295
Ar       2.40441909      16.38562838       3.51970278      -0.02981000       0.00814124       0.07488197
Ar       4.72474058       6.16902660      11.72806365      -0.00408373      -0.09126401       0.01445844
Ar      10.84292155       0.31169867      10.13938153       0.06456513      -0.02116676       0.02681563
Ar       3.55554373       6.41826857       7.47856357      -0.05341163      -0.04174014      -0.01437092
Ar      13.66389434       6.43233620      11.03165454      -0.07063331      -0.05282474      -0.05925799
Ar      13.17911351       2.76015499      12.61495174      -0.07194993      -0.07021792       0.00151614
Ar       7.96886765       5.06638150       2.76810924       0.05893524       0.02496613      -0.07935215
Ar       4.24977004       3.14887363       2.21202939       0.01806486      -0.02673343       0.02446625
Ar      16.41326132      10.13028391      10.60528714       0.03170173       0.05762979       0.03792610
Ar       1.53825720      11.35000029      14.67993592       0.08669426       0.07521387       0.01671161
Ar       2.16540257       3.38115562      11.85178163      -0.05785052       0.00465381       0.01125263
Ar      11.22825858      10.66662657      14.79684022       0.01836513       0.02324076      -0.01413797
Ar       0.36764771       7.51821479       8.66952512       0.06154308       0.07305338      -0.09339764
Ar       9.80665128       6.49303785      16.59059079       0.01072084      -0.03289013      -0.03900150
Ar       9.87650793       3.78715697      13.58535649      -0.02973773      -0.09610749      -0.00023629
Ar      17.33900200      10.25402928       1.14787603       0.01737588      -0.09828957      -0.07798579
Ar       7.33413924      15.33907612       9.26560162      -0.10097062       0.07456201      -0.02829118
Ar       1.44930490      11.04252873       6.83935808      -0.01767466       0.09153406      -0.02286702
Ar      17.25822137       0.43387148       9.70099125       0.03209071      -0.04501734      -0.00802348
Ar       3.87940307       9.33938634      17.01702733      -0.00877390      -0.04044978       0.00937182
Ar       9.80608076      11.78113989       0.51730642      -0.00374521      -0.00082586       0.06254644
Ar      14.33750279      12.35494914      17.29566535       0.01291488      -0.05263050       0.01792103
Ar       8.55297865       8.99604320       6.36424412       0.08665023       0.02067790       0.10677893
Ar      15.19720547      16.58422044       1.66685424      -0.01008183      -0.01603838       0.05429862
Ar       9.24208790      14.58645614       2.79507826       0.01830110       0.08964439       0.05182358
Ar       8.37107448       2.90686822      16.91952912      -0.09205764       0.00525399      -0.01200391
Ar      13.12387511       8.50843010       0.42938877      -0.01044628       0.10582860      -0.06750785
Ar       5.19930904      10.10199510       6.71912730       0.01303197       0.01759485      -0.05167247
Ar      15.85671711      15.30262058       7.34332362       0.03927228       0.04096474      -0.05650128
Ar       2.57475591      12.60566641       1.35947675      -0.04932679      -0.08115901      -0.00227445
Ar      15.36951004      11.14727318       4.11419388       0.04999456       0.01592627       0.05391730
Ar      17.10787822       1.25027265       5.53592684       0.03123452      -0.05451232      -0.05575367
Ar       8.90474891      13.81195522      14.48696199      -0.02326177      -0.01420985       0.04876306
Ar       5.53583144      15.79785876       5.63852198      -0.01367809      -0.00459071       0.05589317
Ar      12.31995000      12.59762991       7.63588643       0.05963087      -0.05426996      -0.01101684
Ar       0.49486092      14.80406197      16.75333708       0.01876493       0.00029204       0.07867593
Ar      16.13067934       4.04243145       7.43427011       0.01145871       0.03107051      -0.02938599
Ar       5.93097171      11.22896871       3.21418785      -0.01347268      -0.04551483       0.06438110
Ar       8.99271688      11.36369381       9.20288382       0.02461950       0.03644157      -0.07274016
Ar      12.49454575      14.07975205      14.33683504      -0.13024148       0.03322177      -0.05636254
Ar      13.39526029       2.83669180       0.06111269      -0.07557052      -0.01213694      -0.03373860
Ar       9.31881249       8.47729058       2.09837003      -0.08160240       0.02168087       0.04886986
Ar      12.60787863      14.66288348       3.21892992       0.00947860      -0.00468663      -0.07594778
Ar      16.84067572      14.30874518       3.37369938       0.01292437      -0.00828386      -0.01572068
Ar       2.87283197      15.21568302       8.25859307       0.00607202      -0.01850367       0.07981046
Ar       7.09138634      17.19304762      12.47930205      -0.01203619       0.06561776      -0.05260437
Ar       0.22645004       7.58875530      15.75267001       0.03336690       0.05328838       0.05088743
Ar       5.42750740      12.48956720       9.60245791      -0.09133088       0.02463081      -0.11902569
Ar       2.70453196       9.68354346       3.67758986       0.02693661       0.03047251      -0.01174094
Ar      12.90854457       9.55982168      10.85519537      -0.01464474       0.04864651      -0.06781026
Ar      15.84959890      13.52428206      14.04542563       0.03516990       0.02006220       0.01595465
Ar      13.60235420      12.90188783      10.98196416       0.08178159      -0.02153114      -0.01501504
Ar       5.78207907      12.23173601      15.92853229      -0.01429619      -0.03014897       0.06625461
Ar       3.16045953       5.04502323      14.91917416       0.08098980      -0.03726029      -0.02934563
Ar       7.54319162       9.36279386      16.09203159       0.02598340      -0.02806412      -0.04040763
Ar      15.15599106       9.74208090      13.86396967      -0.00061205       0.08495271      -0.06502569
Ar       3.49639361      14.43704518      14.05826952       0.05330266      -0.03129510       0.01893641
Ar       0.59657060      13.83254710      10.69360514       0.09245295       0.02981387       0.00985830
Ar      13.90749728       1.57125720       8.79372455      -0.07053936      -0.02205672       0.07159483
Ar       4.30520199       9.41089804      13.32696193       0.10239466       0.08714585      -0.06407190
Ar       5.45944020      14.81105940       2.53050657       0.01923345      -0.00062891      -0.10263111
Ar      14.47052449       0.12302814      15.36600685      -0.06899019       0.00886880      -0.02800195
Ar       3.71234645      15.86665735      17.20483404      -0.03166535      -0.04479028      -0.00228767
Ar       0.56928741      16.69159622      13.51432807      -0.04889759       0.07207489      -0.01164830
Ar      11.24172404      15.67525488      17.12878432       0.05894667       0.02933477      -0.05474259
Ar       2.74385191       9.82934915      10.24556180       0.02016820      -0.06882001       0.03769527
Ar       7.71142241      10.46430355      12.82466709       0.01037580      -0.07968529      -0.01610253
Ar       5.46901460       0.57885430       8.31596608       0.00807692      -0.00223158       0.08676808
Ar       7.54945529      12.90012574       6.12274628       0.00393873       0.00366814       0.09190455
Ar      10.34261558      13.84533764      11.00463818      -0.03279674       0.00968526       0.10241639
Ar      12.55618383       6.18938607      14.60591039      -0.01519357      -0.03503039      -0.01907752
