108
Lattice="17.35 0.0 0.0 0.0 17.35 0.0 0.0 0.0 17.35" Properties=species:S:1:pos:R:3:momenta:R:3 pbc="T T T"
Ar      10.00388739       0.13118986       9.42483230       0.03474939      -0.00727794      -0.00595283
Ar       5.86544132      12.10011691      12.74060505       0.01807863       0.05981133      -0.01472478
Ar      14.94600077       2.14054076       3.31072823       0.04046273      -0.08868511      -0.01187900
Ar      16.40652354       5.54650871      14.34001819      -0.00017904      -0.06490675       0.00589032
Ar       5.82272880       5.78803321       7.65577784       0.13744619       0.04324152      -0.16316088
Ar       5.96556659      14.23130109       3.79641436       0.04198596      -0.00794495       0.08693535
Ar      12.30778187       4.02493593       7.81616401      -0.01321096       0.11604756       0.00284398
Ar       7.80835052       7.99509177       5.20570192       0.10484902       0.01764756      -0.12009150
Ar       6.93633460      16.00326347      10.36004501       0.00260210       0.03032072      -0.04253403
Ar      13.38675716      16.74883074       0.77386235       0.01989726      -0.05229935       0.03500791
Ar      16.91324637       8.97152160       9.39681072       0.10150311       0.03453820       0.02161508
Ar       2.06650336       5.41334805       8.02495642       0.06397002       0.00165743      -0.02070899
Ar      13.08555131       4.75402131       1.52966299       0.00613196       0.07911130      -0.05301681
Ar      10.68670324       1.27935183      16.79036098      -0.01620128      -0.01553168       0.03233755
Ar       2.28015951      10.75346412       0.97197365      -0.07524197      -0.03604199      -0.05781624
Ar       3.22263207       7.85119062       3.41674745       0.02003005       0.02705340      -0.04108252
Ar      10.98216150      12.93189048      12.58141468       0.02223823      -0.03561426       0.04519658
Ar      12.83289631      10.87972309       0.87788709       0.04284082      -0.08940926      -0.03977575
Ar       3.93160245      16.12259214       7.32639811       0.03862355       0.05704630       0.04468446
Ar       6.99338156       4.68230131      15.25663449       0.05379073       0.00295462      -0.00350095
Ar      16.06174373       5.60727524       3.75040376       0.07142056      -0.07577441      -0.02563618
Ar       3.51671959      14.80110689      11.92021717      -0.05640909      -0.03099396      -0.01413395
Ar      11.74536504       7.16113536       4.99248837      -0.03617760       0.01011802      -0.10191670
Ar       5.42612434       0.74911789       4.15804713      -0.06238692       0.08870260      -0.00049035
Ar       2.47006900       2.52414565      14.95910742      -0.11734976      -0.00213929      -0.00983966
Ar      15.88132874       9.67584305      16.60725966      -0.00902354      -0.05503423       0.03448065
Ar       1.32689998       7.04467884      12.03445538      -0.08788080      -0.02540890       0.01690704
Ar      13.07597895       2.67455202      11.81167878       0.01031539       0.02155763      -0.05499528
Ar       7.24550761      10.82033235       9.21496540       0.09901318       0.10342349       0.02297356
Ar      16.02514933      16.08707117       3.84510332      -0.04719964       0.06191121      -0.01478912
Ar       0.64924323       0.01481903       0.90937107      -0.00625910       0.05460629      -0.03088014
Ar       7.68683807       3.01267082       5.96293567      -0.01604286       0.00603365       0.07255157
Ar      12.84476511       7.88886231       8.37863097      -0.05736194       0.01958700      -0.02370571
Ar       7.29588156      13.85056102       7.13579040       0.01682413      -0.09029569       0.08200888
Ar       3.01584926      16.43930560      15.44530320      -0.01895045       0.04455597       0.04587178
Ar       0.11666599       3.85551132      11.07828783      -0.06119658       0.02778254      -0.04908345
Ar       4.08263143       4.57889863      11.06971818       0.18058823       0.05633409       0.01613435
Ar       0.16856424      13.91425172       0.05219749       0.01191338       0.02975067      -0.01327712
Ar       5.32307360       7.19703694      13.49220515      -0.00758977       0.07424117      -0.01111943
Ar      17.19369073      14.93531711      10.54163315       0.05022114      -0.00984560      -0.11189032
Ar       5.11460075      10.89844116       6.26374623       0.02645398      -0.01610012       0.00399021
Ar       9.94918491       3.28750698      13.72040965      -0.04553328      -0.03618041       0.03708311
Ar       7.85398823       6.26675354      11.39701465       0.12394763       0.01600403       0.02752973
Ar       3.74338640       5.80947185      16.93405051      -0.06254981      -0.01651632      -0.04741007
Ar       3.50490445       2.06388337       0.88733932      -0.13844927       0.02139703       0.09165111
Ar       2.61720617      10.68214280      12.36422744      -0.04163078       0.06554342      -0.14048205
Ar       6.42142775      13.59864698       0.19829981       0.01672086      -0.04992342      -0.00665083
Ar       2.78705918      15.70551592       3.72887770       0.00352321       0.01532019      -0.00622667
Ar      13.20206364       3.74733156      14.82803859      -0.04659247      -0.02002256       0.00640253
Ar       0.51859740      15.03204647       6.97210934      -0.07497970      -0.02476929      -0.01706251
Ar      11.18103359       6.51686995      12.76124743       0.03181744       0.02439639      -0.05208209
Ar       9.59145084       6.32956518       8.06451621      -0.01831818       0.01236776      -0.02352748
Ar      12.70176086      14.88948544       3.78531947      -0.01763250      -0.00316511       0.04524628
Ar       6.82831372       2.11418675      12.58025719      -0.05829071      -0.05706043       0.14589405
Ar      15.42115791      13.15137268       5.76265275       0.05047876      -0.07053214       0.01286553
Ar       9.34454280       3.32412885       9.96041413       0.06245119      -0.01285551      -0.02038325
Ar       5.62339456       5.15128363       4.40457389      -0.09650054       0.00169139      -0.04290646
Ar      10.06097963      13.05274339       2.05380552      -0.08810068       0.05946786       0.06152114
Ar      10.09246118       4.39106553       3.76919125      -0.03723151      -0.00704851      -0.04789771
Ar       8.82619346      11.49823558       4.90336713       0.03913164      -0.06541875       0.03457126
Ar      14.14670975      13.26156299      16.06612248      -0.06437463       0.03821376       0.08463286
Ar       8.84335952      11.11101621      16.38950529       0.04821230      -0.00955144       0.00194611
Ar      11.11461195       1.05791566       4.16762426       0.03800871      -0.07999660       0.02558651
Ar      13.51003042      15.44611395      10.62945527       0.03852077       0.03966216      -0.01222742
Ar      15.34897395       8.26175288       5.69817106      -0.01986271       0.00659937       0.03180680
Ar      16.07551622      10.49705862       3.06296560       0.00210510       0.06106378      -0.03663193
Ar       6.84124581       6.94716258       1.36830084      -0.05627926      -0.00890723       0.01165537
Ar      12.56979417      11.03149684       4.55159836       0.01362538       0.05080419       0.02859851
Ar      16.20360197       3.20592053      17.25242376      -0.10486844      -0.05545241       0.04905372
Ar       3.51716993       0.86537335      11.91764425       0.02670482      -0.04901477       0.04827582
Ar       3.55711542       2.29445606       6.58361094       0.01789838       0.02639761      -0.02112431
Ar      10.51515624      11.58173985       8.37135870      -0.10677375      -0.00321398      -0.09196349
Ar      11.98019363       9.41086505      15.16818341      -0.03642079      -0.03986487      -0.00452803
Ar       2.11987329       4.31366963       3.54055549      -0.08176011      -0.10477497       0.05333305
Ar       4.01507545       8.40655866       9.65789099       0.02433365      -0.04158742       0.03873559
Ar      11.74997053       9.74350035      11.26613685      -0.00122679      -0.00636889      -0.01996711
Ar       9.78752420       5.25942341       0.07399127      -0.00856739       0.05650980       0.03136607
Ar       0.06564524       0.46233595      13.36344044       0.03392225       0.03733912       0.02444561
Ar       1.82357101       8.97608544       6.30782866      -0.02817787       0.00545273       0.08634402
Ar      10.46700752      14.43410347      15.74186405      -0.02814938      -0.05852811       0.04046454
Ar      11.64180143      15.13639440       7.09878290      -0.05432701       0.01696462       0.06053633
Ar       1.80023314      12.06148391       4.64586757      -0.00769110       0.05189547       0.00182818
Ar       7.50135541       3.11180472       1.95289773       0.06567912       0.00363821      -0.04163415
Ar       0.59054086       7.28511436       1.31083541      -0.08547496      -0.03732967       0.03281050
Ar       3.61915120      12.71544929      15.31602804       0.02953939      -0.01132642       0.03589538
Ar       6.06037958       1.99208669       8.84172581       0.04358341      -0.04439381      -0.01623449
Ar      14.96032854      12.36960466      12.47130174       0.05390770      -0.07030750      -0.02055264
Ar      15.28789832       8.96384880      12.77312377      -0.07985717       0.03065352      -0.01625182
Ar       5.49621708      10.77635189       2.46145411       0.07367018       0.06037003      -0.00645824
Ar       8.63181569       7.67082167      14.96734614      -0.01362032      -0.09160149       0.06542004
Ar      15.45437409       5.71453484       7.80314262      -0.00217385      -0.00595650       0.04118105
Ar      13.75720309       7.96116704       2.39287123       0.05327011       0.06590302      -0.03481302
Ar       0.74148427      13.69125656      13.63905346      -0.02976656       0.06124021       0.07990765
Ar       9.29295492       0.04874988      12.94617273      -0.00114967      -0.03027891       0.03176563
Ar       2.07758335       8.19707633      15.17223577       0.06351915      -0.00746534      -0.03227021
Ar      17.20862079       2.74240556       6.20111644       0.05493563      -0.05120781      -0.03531721
Ar       5.28214681       9.43029682      16.52071275      -0.05449737      -0.06323632      -0.00636264
Ar       8.87355503      16.49393001       2.40435614       0.00068636      -0.03466034       0.02185285
Ar      10.25847990       8.60628344       1.61031309      -0.02577389      -0.03087773      -0.00800035
Ar       1.14890316       0.38262006       9.19558038       0.01805848       0.07274516       0.02808767
Ar      14.42417608       6.15604012      10.98638975      -0.01270861      -0.01823155       0.03053991
Ar       6.81107660       0.78892951      16.68599553       0.05588977      -0.05771315      -0.05789040
Ar       3.47560746      12.77096730       8.85877170       0.03485767       0.00589398       0.00116446
Ar       6.21328453      15.86088884      13.97123712      -0.01906463       0.08915908      -0.03273131
Ar      12.84881721       0.00246377      14.24464058      -0.05581298      -0.00437829      -0.03538647
Ar       8.25745958      16.98745040       6.34806660      -0.03923715       0.02047632       0.00389550
Ar      14.03892040      11.36052700       8.72779107       0.07548427       0.02268553       0.00580211
Ar      14.36992757       0.17967297       7.33378446       0.02165409      -0.02486854      -0.05814980
