108
Lattice="17.35 0.0 0.0 0.0 17.35 0.0 0.0 0.0 17.35" Properties=species:S:1:pos:R:3:momenta:R:3 pbc="T T T"
Ar       7.73988040       2.29684101       6.33866621      -0.01862099      -0.04733101       0.02097691
Ar       7.65237450       6.44761384       8.87372234      -0.01665206      -0.02373377       0.11539931
Ar      10.08116173       5.39412872       5.49239160      -0.04940462      -0.04133613       0.10997465
Ar      16.62185277       7.55446405       6.47391475       0.00679198       0.12002537      -0.05179247
Ar       6.24125579       3.59253915      10.93807483       0.02309424       0.00273730       0.01049667
Ar       5.35050578       0.76044439       3.17828466       0.02350807      -0.02548415       0.07385103
Ar      15.18396111       4.48324359       3.88452328      -0.03196081       0.03617266      -0.02070756
Ar      13.76348580       4.66856325      10.07988070      -0.03907428       0.04375789      -0.07637032
Ar      11.88030744       1.98599792       7.10570654       0.01633768      -0.03728681      -0.08879876
Ar      16.68459808       3.98606226       0.20342784      -0.00447030       0.02724255      -0.05459554
Ar      10.79400313       8.04480568       9.91652807       0.01980671      -0.04462783      -0.00539051
Ar       4.74448124       3.14663683       7.60409520       0.01278262      -0.07595245       0.03407560
Ar      12.53066378       5.93849610       1.18091080       0.04479293      -0.01114284      -0.02450670
Ar       6.52421569       5.86369452       5.54274819       0.02378914       0.03648729      -0.06459837
Ar       8.23208348       4.23101780       2.42829986       0.03322867      -0.00076867       0.00371020
Ar       1.85207626       2.46207251       5.59798341      -0.02864707       0.03758297      -0.05225806
Ar       6.38949554      14.89329529       4.81399520      -0.07788513      -0.01578094       0.05986952
Ar      11.57073743       3.14714030       2.98999038       0.06246158      -0.03363808      -0.00926708
Ar       4.15786957       6.78501678       9.65146449      -0.08833328       0.05779143      -0.03380988
Ar       3.36918391       7.53448305       1.39288298      -0.05210530      -0.07312556       0.00820269
Ar      13.25082845       7.53818011       4.27300248       0.03425839       0.00408815       0.07750759
Ar      12.60872455       0.09225745      10.03582127      -0.02866860      -0.03820865       0.02185508
Ar       4.95959069       4.67334919       2.56084557       0.06164444       0.02770580      -0.02815548
Ar       3.22526393       7.48455629       4.66874016      -0.03877109       0.04133803       0.07162817
Ar      15.50472648       1.19928332       1.99013644       0.02328565       0.01134052      -0.03423225
Ar       6.56174254       2.16299100      17.08542924      -0.01865094      -0.11290455      -0.04818978
Ar       4.60593005       1.58518910      13.86151037      -0.03081669       0.06272116       0.06679445
Ar      10.82146717      16.98726526      14.51867473       0.07318799       0.04552332       0.11621952
Ar      17.24540103       1.08030691      15.84692808      -0.08099243       0.06136156      -0.02084134
Ar      15.38652770       1.73753432       7.51409404      -0.01361353      -0.00818619      -0.02691035
Ar       9.93940741       6.35258319      15.28922155      -0.04967511       0.06515859      -0.01743992
Ar       9.13397872       2.91379621       9.42190155       0.01103234       0.01006998       0.09328044
Ar       8.25866875      10.49034212       9.17912503       0.05699481       0.03296904      -0.04639751
Ar       8.30233692       2.35644288      13.72889292       0.06083824      -0.08233122       0.03559178
Ar       2.07963762      16.45842637      12.39012575       0.05071431      -0.00477478      -0.01190438
Ar       2.24646481       8.29245552      12.47583861      -0.01013050       0.06336081       0.13720236
Ar       0.22060647       6.06509141      14.57676323      -0.07261049      -0.04924308      -0.01201387
Ar       2.54980622       2.72013342       0.76950047       0.00245053      -0.05558147       0.11213666
Ar       5.99804222       6.32188896      13.38886459      -0.09038804       0.04295420       0.07596152
Ar       8.96107292      16.98195894      10.75562689      -0.07052241      -0.00893800      -0.08713892
Ar       1.04777809       4.49210886       8.85146900      -0.03180849       0.02295750      -0.03318671
Ar       9.42446753       5.81459833      11.98537532       0.01111328       0.10284101      -0.01080914
Ar      16.79998487       3.01268844      12.73330407      -0.00634078       0.03169803       0.07454463
Ar       8.03126144       7.75409943       3.00872014       0.04703748       0.05633518      -0.01410881
Ar       3.56459266       4.88110587      15.36838733      -0.01979713      -0.02895695       0.11550541
Ar      16.19886643       6.62353071      11.34139640       0.03610094      -0.04149679       0.03702534
Ar       4.27683785       8.52090109      15.42864952       0.01573559      -0.04534872      -0.02381438
Ar       2.98902134       4.05192984      11.82625976       0.06597948       0.02285939       0.03531177
Ar      13.02860007       7.44296818      12.80856630      -0.01557447       0.05735168       0.01368020
Ar       2.44701966       1.09836948       9.14004403      -0.00835981      -0.07619946       0.01593073
Ar      13.92951004       4.52562763      14.65840978      -0.10815838       0.01210187      -0.01534163
Ar      11.56970051       2.63913745      12.48222017       0.01508787       0.06712084      -0.04547188
Ar      12.64679491      17.01448672       4.13662092       0.08904004       0.06247665      -0.01667876
Ar       5.69276843      13.79779608       8.72538702       0.00546198       0.00535057       0.05866814
Ar       1.47152202      10.25414621       3.54710926      -0.04351630       0.05176301      -0.00449662
Ar      15.78831483      11.10791301       5.35206448      -0.03409409      -0.00163685       0.07256537
Ar       4.66466475      10.61604088       1.01222905       0.05540708      -0.10326382       0.04428473
Ar       8.24554480      11.33112771       3.18657552      -0.06978684       0.01833191       0.00376929
Ar      12.89047053      12.05968051       3.14937528      -0.04327819       0.02243332       0.00535695
Ar       9.10964877       8.45103562       6.49041980      -0.00796322       0.01281221       0.00308177
Ar       0.42405196      15.95975154       0.84724204       0.04084050       0.02161780       0.01037109
Ar       6.40430986      15.09002953       0.72507092      -0.07194745       0.09061389      -0.02950366
Ar      10.33656213       2.94765851      17.13590314       0.03219998       0.02610642      -0.00519486
Ar      17.30891182       7.12149150       2.51746086       0.03263910       0.02760306      -0.03208360
Ar       5.28907838      10.36072343       6.34641911       0.04978991      -0.02007068       0.04362634
Ar      13.16795113      14.35368476       6.60360332      -0.04352456      -0.00249154       0.04172626
Ar       2.49681666      12.93004275      16.10756882      -0.05086605      -0.03757056       0.02796893
Ar      11.92025116      10.85993661       6.27354429       0.04874101       0.03768652      -0.11605204
Ar       0.00900737      16.74726644       4.51343895       0.02095253       0.02783453      -0.01929364
Ar       9.62364209      12.76777728      17.11169103       0.10536621       0.05707376       0.00498697
Ar       9.23191235       0.71358299       3.48928700      -0.06751787      -0.09590298      -0.01883436
Ar       9.91106801      16.30209913       6.85764653       0.01859209       0.08124746       0.00998457
Ar      16.30021217      12.39879160       1.17944965       0.05151642      -0.08090504      -0.06105257
Ar      16.52579538      15.28881902       7.99715268       0.07670545      -0.03381737       0.06743066
Ar       1.46188137      13.12467969       5.88042627       0.00014122      -0.09139596       0.03758986
Ar       8.93727535      12.94213842       6.48433587      -0.07210911       0.00448968      -0.05265307
Ar      13.15160172      11.84717212      16.75438081       0.04183688      -0.06062219      -0.13161230
Ar      13.67307866       1.70262166      16.39635845       0.03739768       0.01003396       0.05801834
Ar      11.04961720       9.37788649       0.97981664       0.08950718      -0.04609764      -0.10381958
Ar      10.09709322      14.33883310       3.39580432      -0.05512660      -0.12552946      -0.07397837
Ar       3.34553859      13.47727278       2.71505352      -0.00479348       0.03628199      -0.07670643
Ar       3.35447953      16.56870308       5.97440595       0.01639340       0.03446206      -0.00385134
Ar       7.22658352      16.06208271      14.64118078      -0.05151408       0.05556416       0.00947599
Ar       0.95043375       9.53040030      16.28660609      -0.08070467       0.05287922      -0.02212115
Ar       1.93510406      11.86121800      12.09766126       0.01611648      -0.00117859      -0.03795495
Ar       1.66673110      10.41501684       8.03052546      -0.03304762      -0.03158235       0.01578166
Ar      12.34525089      10.73022314      11.41004813       0.00489103      -0.01510816      -0.01260663
Ar      15.47091571       9.97014744      10.12694596       0.14370273      -0.03358011      -0.07577408
Ar      14.51515400      13.99107462      11.22964213       0.00228723       0.03253299       0.05169914
Ar       4.91884289      13.89865847      12.21500676       0.04439289       0.04644642       0.06966420
Ar       6.81961791       5.99339505      17.14008978      -0.02762244       0.07732517      -0.01556435
Ar       8.78099403       9.63682755      15.43477325      -0.04854275       0.03706816       0.02620916
Ar      15.50752392      10.64508704      13.65509496       0.00197397      -0.08974659       0.01105485
Ar      16.90957229      14.44665368      14.33602082      -0.01613765      -0.04668313      -0.00923898
Ar       2.26556853      14.50108818       9.10210794      -0.02639635      -0.03746058       0.00404572
Ar      16.76105006       0.01788162      10.67339163       0.08372966      -0.00616601       0.02566979
Ar       7.53853466       9.02466690      12.24311748      -0.04826858       0.00188215      -0.07358572
Ar       6.45314888      12.18283839      15.23826316       0.02258111      -0.07438019      -0.08776890
Ar      13.70384322      15.36658635       1.10244150      -0.07345107      -0.03366357       0.05424078
Ar       3.54300148      16.96298967      16.39975259       0.00162235      -0.00195495      -0.06563343
Ar      14.24240364      17.03335644      13.04929024      -0.02881280       0.00404432      -0.08776245
Ar       9.43787197      16.50421471       0.38621046      -0.00193600      -0.01364860      -0.08407247
Ar       4.52132014      10.45470785       9.97320720       0.09484654       0.03926143      -0.06329437
Ar       8.33895489      12.84896626      12.18253085       0.05612057      -0.03783368       0.01181590
Ar       5.56124960      17.27133227      10.52044529       0.04495362       0.05714646       0.02115441
Ar      11.26039696      14.21969664       9.59307463      -0.12504678      -0.10047167       0.01830706
Ar      11.60458479      13.06163996      13.77163353       0.04866614      -0.01419199       0.00971791
Ar      14.71587293       8.06712635      16.68028065       0.01756930      -0.01669108      -0.01575780
