108
Lattice="17.35 0.0 0.0 0.0 17.35 0.0 0.0 0.0 17.35" Properties=species:S:1:pos:R:3:momenta:R:3 pbc="T T T"
Ar       7.93349380       1.46181164       7.31256660       0.01948622      -0.01349862       0.06987815
Ar       9.60876129       7.85618698       8.89171337      -0.07619590       0.08479652      -0.04648162
Ar      12.15340478       3.61733484       4.64039141       0.01125925      -0.04523416       0.03143174
Ar      17.04473700       7.72435554       6.12478510      -0.01803640       0.03056869      -0.02691977
Ar       7.80022987       4.38674610      10.54324575       0.03917565      -0.08767455      -0.01834875
Ar       3.94440507      15.02078185       4.64579294      -0.02449482      -0.03762378       0.04713633
Ar      16.30992396       5.09221928       3.43431587      -0.05574334      -0.11607868      -0.06945369
Ar      13.80423465       5.54837393       7.41217567      -0.03090576      -0.07507958      -0.10825874
Ar      12.70867614       0.26222027       5.97560136      -0.02286042       0.02335637      -0.09671286
Ar      16.21150294       6.03697695      16.87060618      -0.09330435       0.08706248       0.13484604
Ar      12.94131710       9.12118395       7.50118252       0.04499978      -0.02396154       0.03359659
Ar       4.86945432       3.24672246       8.86888638       0.04267436      -0.01471401       0.08698804
Ar      12.98599300       5.23343413       1.42780016      -0.01463849       0.08444145      -0.09546943
Ar      10.24356052       4.21184588       7.75167689       0.02118860       0.05836888      -0.03426284
Ar       8.58000987       3.55515486       4.18195943      -0.00761049      -0.10585165      -0.03607924
Ar       1.56259636       3.63759446       5.24715548       0.06524636       0.03578839       0.02722149
Ar       8.56758515      13.04078872       5.27543775      -0.06466163      -0.01896184       0.00231270
Ar      12.44152038       0.53431550       2.27940497       0.02987704       0.04105126       0.11783521
Ar       6.85572205       6.55173956       7.18358881      -0.05827492      -0.03427032      -0.06735388
Ar       0.90995317       7.78138016       1.71233547       0.00353514      -0.00378760      -0.00646896
Ar      14.48668177       9.11089674       3.42255865      -0.02677013       0.06163331       0.05555050
Ar      12.85371907      16.39606642      11.24007057       0.01828469      -0.02214089      -0.03307605
Ar       5.35882408       2.95602249       5.11948527       0.07950005       0.01873257      -0.02274988
Ar       4.02342011       6.61877585       5.14220410       0.01530395       0.01968201      -0.05651879
Ar       0.18987015       2.43321068       1.50826169       0.05047927      -0.05979982      -0.02849451
Ar       6.42698319       2.35558444       0.83824007      -0.05863052      -0.11281969      -0.02710709
Ar       4.06816868       3.14259437      15.95711002      -0.03247302       0.02077249      -0.01620830
Ar      10.52677123       0.15004037      14.84716556      -0.04087593      -0.00589835      -0.02548798
Ar       0.12871188       2.48757034      14.68553195      -0.02094790      -0.02747855       0.02841395
Ar      15.96018297       1.67137567       5.49552524       0.03444986       0.05682403       0.05389490
Ar       9.81748291       6.94239846      16.22398538       0.06720676      -0.05914860       0.03170058
Ar      11.87720886       1.39431931       9.30124364      -0.03233713       0.05184618      -0.15785813
Ar       6.46779899       8.97467772      10.34024509      -0.01128727       0.05273080       0.05780795
Ar       7.92238104       3.75430758      14.93788212       0.00206119       0.07537998       0.04179974
Ar       3.15766433      17.09598590      13.90452060       0.11685925      -0.01475620       0.01854803
Ar       0.66389358       8.32075090      12.34015207      -0.01425222      -0.02791364      -0.02208383
Ar       2.39149077       6.55869373      15.25123490       0.04077980      -0.00284407       0.01381644
Ar       3.28905204       1.03680794       2.54121228      -0.02749813      -0.05510761       0.04362954
Ar       4.25463946       6.79986708      12.29479361      -0.07775300      -0.01305370      -0.06211161
Ar       8.37407851       0.74960572      11.45886291      -0.04675559      -0.00793824       0.04296634
Ar       2.80462125       6.24761491       9.01755731      -0.04217759      -0.08507062       0.00839818
Ar      12.10976172       6.08235394      10.48731384      -0.00891731       0.08751298      -0.01303442
Ar      14.61874413       2.29895753      11.58758670       0.05879431      -0.07357763       0.03926347
Ar       7.32815022       6.50459052       2.56675953       0.08559594      -0.03655491       0.02876782
Ar       3.07215460       4.89852391       1.61141724      -0.01499703       0.04477307      -0.04232272
Ar      16.37028547       7.05524575       9.51289261      -0.00499729       0.03999576      -0.08785000
Ar       4.20280300      10.15020412      13.89717853       0.00579925       0.00030733      -0.02308205
Ar       1.92673128       4.11612567      11.80277183      -0.03533798      -0.08655635      -0.06011836
Ar      11.54269897       9.73325901      14.75888776       0.00874738      -0.03129801       0.05400108
Ar      16.95648637       3.36487385       8.74046883      -0.00009150       0.03300985       0.10445973
Ar      12.60291140       5.90345578      14.37046320      -0.04659819       0.04478970      -0.03070233
Ar      11.09014383       3.03253936      12.41946281       0.06358491      -0.01106590       0.08134879
Ar      15.00969554      12.84897254       3.45642038       0.01037825      -0.10238263       0.00290616
Ar       5.31729470      16.68414870       9.97651851       0.03010050      -0.03488096      -0.04117802
Ar      15.91698667      11.18796492       6.79437708       0.06469686      -0.00600202       0.01594984
Ar      17.32246772      13.87703410       9.81208659       0.01011501       0.07268303       0.05133404
Ar       4.20439553       8.69329596       0.30316075      -0.01980141      -0.06913344      -0.04045786
Ar       9.86601240       8.82264684       2.15618062      -0.03073097      -0.09176846       0.01638948
Ar      12.35772139      11.84785907       0.55317613       0.02217058       0.04040531      -0.09400298
Ar       8.56696272       9.54066485       6.00391839       0.02263237       0.01448863       0.08376299
Ar      15.40470429      16.30396196       3.12641024      -0.03128779       0.02805895      -0.07888177
Ar       7.54441126      13.46118287       2.08497002       0.06806808      -0.00599230      -0.04363717
Ar      10.43021746       3.14785317       0.48118173       0.05608153      -0.02967011       0.01484837
Ar      13.37866666       8.60690797       0.01526069      -0.10321142      -0.05490586       0.06462578
Ar       5.18372397      10.24354904       7.26414987      -0.02306096       0.00675705       0.05975788
Ar      13.74056929      14.11221988       7.03667639       0.08804748      -0.02158266      -0.00916706
Ar       2.45857397      13.60416679      15.36083674      -0.00632316       0.03383088       0.02399052
Ar      11.45101695      11.04040436       4.58762564      -0.06449944       0.03900480      -0.00163878
Ar      17.21628531      15.16571171       6.43503548      -0.07647846       0.04804045       0.00254130
Ar       9.71297112      12.66410808      15.71616482       0.06895495       0.06781200       0.02913077
Ar       8.09888348      16.80763153       4.64680564      -0.00097394      -0.07227159       0.01982352
Ar       9.97542157      15.43115059       7.83474431      -0.03745432      -0.00618466       0.00653110
Ar      16.31681253      14.39068348      16.20149836       0.04024771       0.05713706      -0.04862448
Ar       1.16589117       0.90342232      10.69023781       0.02854824       0.05804451       0.03886412
Ar       6.13724056      10.48178105       3.29077023       0.07189454       0.03650200       0.00688769
Ar       9.00982964      11.32667318       8.93929237       0.04764912       0.05053654       0.02357833
Ar      13.16030072      13.75063230      14.10199426      -0.04968021      -0.07171912      -0.07910810
Ar      13.72903483       2.76064284      15.17216395       0.04139389       0.04678506       0.01474555
Ar      10.66178391       6.59262891       5.22305113      -0.07925804       0.09993604      -0.03235797
Ar      11.21997537      14.28501940       3.07813875      -0.03569516      -0.00042739       0.01592463
Ar       1.54619344      13.77728336       1.29209102       0.01361315       0.06709719       0.02174413
Ar       2.41184408       0.70302942       7.07247736       0.05507144      -0.01036717       0.06406951
Ar       7.02958871       0.23438126      14.78373925       0.05585996      -0.04060633      -0.03442081
Ar       0.93824883       9.80158690      15.93363066       0.02745007       0.02096812       0.00696878
Ar       3.49630779      13.57345964      11.81430891      -0.00538776      -0.06312788       0.05730533
Ar       2.38508273       9.58331556       4.05327755      -0.06356914      -0.03373680      -0.07794266
Ar      11.68445314       9.80128830      11.15982403      -0.04802210       0.09588888      -0.00990276
Ar      15.08867679      10.36974593      10.09841236       0.05940180       0.01382710      -0.01260443
Ar      12.46206393      13.06307929       9.96795654       0.02683842       0.04348243      -0.10127608
Ar       6.14799518      13.38713403      14.76264074       0.02090091      -0.06831835       0.00050368
Ar       6.09360282       6.57272587      16.03053591      -0.07511771      -0.02323852       0.10172097
Ar       7.42262282       9.82981264      16.10007420      -0.01972752       0.12226473      -0.01009322
Ar      14.98338133      10.36248630      14.52213164       0.09195646       0.04273642      -0.01874724
Ar       0.10369793      11.85781140      12.67669785       0.05458690      -0.07824110      -0.02091629
Ar       2.20924848      12.61455090       7.24515701      -0.03949887      -0.12742691       0.01741149
Ar      15.54288685      17.09886151       8.63917797      -0.01368008      -0.01572880      -0.00478480
Ar       8.42423698       7.21078894      13.12575346       0.02296371      -0.00691953       0.02072854
Ar       4.77707150      15.71866530       0.70508386      -0.04950646       0.00511483       0.05959333
Ar      12.78831301      15.20775999      17.14240673       0.08181669       0.04407504       0.00926615
Ar       0.68210056      17.18985831      17.05773897       0.02746771       0.03412455       0.04834686
Ar      16.48188435      16.29764105      12.49790832      -0.07562478      -0.00076505      -0.04518014
Ar       8.93398660      16.39217787       0.24423016      -0.01170361       0.10018190       0.01620865
Ar       2.57736320      10.04835879       9.88747755      -0.07323655      -0.05969498      -0.06855495
Ar       7.79270971      11.21506651      12.61908498      -0.01015971      -0.04708082       0.11458474
Ar       5.22659449       2.78711867      12.52777341      -0.02019709      -0.01860953      -0.03361240
Ar       6.57159390      13.86287288       7.91204937       0.00010418       0.00641395      -0.11215452
Ar       9.66159407      14.35634536      11.60551865       0.04559025       0.12824293       0.01776633
Ar      15.69365829       5.66013239      12.98284681      -0.10617886      -0.00732243       0.03043644
