108
Lattice="17.35 0.0 0.0 0.0 17.35 0.0 0.0 0.0 17.35" Properties=species:S:1:pos:R:3:momenta:R:3 pbc="T T T"
Ar       8.88951305      15.03989287       3.78923521       0.05235176       0.01865981       0.02025547
Ar      10.04708034      10.20385186      11.44081797      -0.06731229       0.00726584      -0.03263962
Ar      12.26271751       2.04069911       3.36269545      -0.03576364      -0.00073885       0.09740782
Ar       0.68423745       6.59642778       5.03751027      -0.02592714       0.01839459      -0.03917853
Ar       6.40609181       3.63562492      10.86688060      -0.06296488       0.06285807      -0.02364704
Ar       5.37243125      14.83912980       4.31365834       0.05323754      -0.00164748      -0.03933661
Ar      13.80351804       6.85225426       6.49103846      -0.03159084      -0.00947900       0.02658904
Ar       9.66386363       8.08676215       7.78518931      -0.10849358       0.02423778      -0.00731017
Ar       9.34722107      13.90938218      10.57702840      -0.04014693       0.02530832      -0.02117566
Ar      14.95406463       4.03229938      17.10968581      -0.04686134       0.00253965      -0.01841219
Ar      16.51556529       8.22922915      11.66034220      -0.05756742       0.02453820       0.03660238
Ar       2.23813230       0.62170362       7.86956988      -0.02626778      -0.03013363       0.05006431
Ar      11.28845383       3.46423441      17.27784452      -0.01967732       0.05168096       0.05679903
Ar      10.35707545      12.08167365      14.28178219      -0.08815648      -0.08940821       0.03318627
Ar       2.56643753      15.68586682      16.55275282       0.03541497       0.01108977      -0.00046455
Ar       2.99423065       4.68669911       7.47992363      -0.01885592       0.04787790      -0.01816080
Ar      14.19991396      10.02594773       5.33881731       0.04375371      -0.00764135      -0.01121575
Ar       9.05049682      13.17706843       0.18986439      -0.03919441       0.03645676       0.01978576
Ar       9.53667376       0.93156554       5.50373324      -0.00959084       0.05245168       0.03125498
Ar       2.73880235       8.43919733       0.47445509       0.01202032      -0.02034407       0.04270645
Ar      14.45841262       5.33629627       3.52592187      -0.00405820      -0.05690033      -0.08772705
Ar      15.81059429       1.52178393       9.38472290      -0.06456379      -0.06906472      -0.06460252
Ar       6.57967214       3.95886084       6.00945986      -0.05025729      -0.08219675      -0.06565404
Ar       5.01268517       6.34589426      16.45527696       0.02368247      -0.01946374      -0.10771061
Ar       0.12821583       2.63837025       2.70146647       0.08694426      -0.00132384      -0.05926256
Ar       6.57476534       3.20202346      17.31912660      -0.08727917      -0.01198856       0.10157484
Ar       4.00349059       4.34009522      13.74777888      -0.00106683       0.04982531      -0.05434619
Ar      11.19395793      16.34899164       8.32357997       0.05446401       0.03078576       0.07131368
Ar       3.55595176      10.77396153      14.88728870       0.06618965       0.04651012      -0.09868182
Ar      15.13910046      13.47503441       4.10673646      -0.05789065      -0.00364807      -0.02294870
Ar       9.00032362       3.87571376       2.88243179       0.03015720      -0.02782681      -0.06613960
Ar       9.56643304       3.63305190       8.95278096       0.03147628      -0.03020051      -0.09496274
Ar       3.79790875      10.41689526       7.20339754       0.04928314       0.01152533      -0.07700773
Ar       6.45792602      11.85591071      11.93887126      -0.04882651      -0.02947034      -0.03180831
Ar       1.37578325       0.70996109      12.77881676      -0.02013470       0.12252466       0.07269888
Ar      14.75050498       7.47429708      14.78535691      -0.00500159       0.04250534       0.04799358
Ar       1.08926490       6.99398104      14.21729387      -0.04830743      -0.03701328      -0.03973073
Ar       2.69013832       0.72810908       4.28674802      -0.03980237      -0.01569639       0.00594980
Ar       1.95147828       4.74263692      10.82441550      -0.00749819       0.07820500       0.05761919
Ar      14.99742834      15.84719642       8.45977717      -0.01424303       0.10560619       0.02896329
Ar       5.76007416       6.92990116       8.46845384      -0.01471499       0.03850630       0.01569016
Ar      13.75416755      10.22790686      12.87713983      -0.00751011      -0.03117374       0.02470185
Ar      15.52813211       5.11779389      10.47610101      -0.03621488       0.03684469      -0.01893772
Ar       3.45366960       4.55476616       2.28493490       0.04872875       0.00529560      -0.03120523
Ar       1.13794268       3.98017211      16.91178975       0.04587965      -0.01603197      -0.07081785
Ar      17.17102538      11.19193822      14.71861875      -0.08184523      -0.05296295       0.01687696
Ar       4.14996261      14.01119066      13.50615780      -0.00008268       0.01279282       0.04619620
Ar      17.03010561      16.48469584       5.49124329       0.00502899      -0.09597761       0.02797730
Ar      10.79009691      15.57987640      13.73861576      -0.01432626      -0.03950222      -0.01269295
Ar       2.37633345       7.81019200       9.27408671      -0.01269910      -0.07427801       0.00659306
Ar      11.08302137       7.97797869      14.21555948      -0.10997620       0.10335801      -0.01703572
Ar       8.63110378       7.08389552      10.90888764       0.07371508      -0.02114763       0.01428792
Ar      12.94496526      14.41817085       1.37094327      -0.03304305      -0.01667194       0.12017347
Ar       5.81268920      15.09963825      10.48914417       0.08060266      -0.04936993       0.02143853
Ar       0.74050192      13.07895794       6.84951417       0.06442674       0.10650729       0.03831452
Ar      12.41325970      16.15156254       4.70424624       0.00005912      -0.06405391      -0.10251139
Ar       1.80161126      12.37068436       0.10781006       0.08502862      -0.09803196       0.02265508
Ar      11.15507032       8.73780515       3.75957171       0.06069090       0.02935269       0.03340687
Ar      12.75239166       7.26469083       0.72912981       0.11538543       0.04869830       0.06578123
Ar       7.35502251      10.42173974       8.75562726       0.01523224      -0.00795229       0.08618483
Ar      16.40454435      14.54014065      17.08570169      -0.08544521      -0.01735785      -0.00772256
Ar      10.57664607      11.98809009       7.51800361       0.07443873      -0.04026840       0.09502791
Ar      10.34037244       0.23926931       1.22470756       0.00490596       0.00274293       0.08754487
Ar      10.78446285       5.36674149       5.74241036       0.04949766      -0.05466540      -0.00678030
Ar       4.05392058       6.78457820       5.04600989      -0.02679263      -0.02551016      -0.04906754
Ar       1.37432398      14.81615974       2.91406425       0.00690539      -0.01352468      -0.00746215
Ar       5.31475194      12.34977545       0.52866518      -0.08889576       0.01225643      -0.02085688
Ar      12.34415727       6.28389346      10.56178678       0.02700975       0.00203486       0.00958030
Ar      15.40475668      16.95541871       2.36891941      -0.01317152       0.05925343       0.01076402
Ar       5.65534367       0.26302319      13.20588681       0.00444667      -0.01588686       0.03182846
Ar       6.14377712       0.28044864       6.84029613       0.03297579       0.02561182      -0.05510478
Ar      16.56040766       9.20386633       8.04458881      -0.04139400       0.03639149      -0.02055797
Ar      14.95481596      11.20174868       1.50977101       0.11777880       0.10039403      -0.01790435
Ar      16.71603850       4.22787430       7.43049080       0.00452537      -0.03064618       0.05250580
Ar       7.80899400      11.46244693       4.90024603      -0.03516105       0.02734464       0.03081718
Ar      13.10688393       9.49575886       9.16757112       0.06600650       0.03232039      -0.08325929
Ar      12.08077455       4.00018421      14.06637541      -0.02440161       0.05677878      -0.00370005
Ar      13.48629930      16.41863868      15.45258709       0.09491425      -0.09675722      -0.04734758
Ar       7.74896814       7.49469697       4.17041508      -0.04696455       0.09767477       0.03551501
Ar      11.32756020      12.35961278       3.99700415       0.04479134       0.08054946      -0.14964013
Ar       1.05926370      10.03034766       4.64165028      -0.05843780       0.02377648      -0.00913357
Ar       4.07825016      14.36532385       7.71771648       0.02119348      -0.07855223      -0.12311454
Ar       9.45167674       1.37657025      15.11877209      -0.04967336      -0.09846816      -0.05272418
Ar      16.42657867       7.26772592       0.96642992       0.06571003      -0.03902375       0.06984559
Ar       1.11680914      15.16701886      10.21376208       0.02898239      -0.00096502      -0.04773413
Ar       4.60802095      10.17008039       3.57267837       0.00593214       0.06197763       0.01585221
Ar      13.82061849      12.76040267      15.19112606      -0.06572063      -0.10597580      -0.02032574
Ar      14.68517344      16.61712322      12.15063165       0.01852765       0.04395613      -0.09051109
Ar      13.44990170      13.74784226      11.27573688       0.00394003       0.05456092       0.05260759
Ar       7.79377953      10.02010601       1.14018912      -0.00232157      -0.05132420      -0.00427353
Ar       7.84933320       4.66800285      14.58002843       0.08457190      -0.01959579       0.01780910
Ar       9.33195887       6.96822338       0.80914971      -0.12478753       0.03601507       0.01103062
Ar       0.33468248      14.53772456      14.02366244       0.08836554       0.01672105       0.04099392
Ar       7.54998349      14.65830202      14.02929470      -0.02100517       0.03909285      -0.08121570
Ar      16.64765520      12.18466786      11.00059517      -0.00261817       0.09180781       0.01593738
Ar      12.38854718       2.25004927       6.97494481       0.04469479      -0.07765968      -0.00231421
Ar       5.49377804       7.40287488      12.14238433      -0.03183325       0.04625912       0.05124176
Ar       6.67114267       1.09577844       2.97574765       0.02044681      -0.07534693      -0.05191811
Ar      11.57008723      10.72760132       0.26448328       0.07358257      -0.01167855      -0.02165164
Ar      16.62072273       0.63174785      15.82474412      -0.06177415       0.00513867       0.08650871
Ar      15.70037780       2.99899695      13.04631778      -0.03278184      -0.06841457       0.00322965
Ar       6.25721859      16.19461045      17.27761143      -0.02467314      -0.12155014       0.13246618
Ar       3.02057622      11.38280589      10.63029102      -0.05857772       0.03976144       0.01359182
Ar       7.23624985      10.08982969      14.81413565       0.04464569       0.04690828       0.04760073
Ar       8.81783548       0.01380407      11.66306140       0.09545263      -0.02069650      -0.00699815
Ar       7.63093080      13.99401308       7.52818895       0.10264384      -0.04392695      -0.00191920
Ar      14.52686870      12.41506505       7.83392947      -0.03788223      -0.06751882      -0.01866558
Ar      12.18892590       2.00758216      10.69210675       0.01138677      -0.00487727       0.08388575
