108
Lattice="17.35 0.0 0.0 0.0 17.35 0.0 0.0 0.0 17.35" Properties=species:S:1:pos:R:3:momenta:R:3 pbc="T T T"
Ar      10.40670624      15.53831336       5.55589127      -0.02110303      -0.09539145      -0.04082880
Ar      10.73427780       7.66259562      12.73057599       0.02782047       0.02879153      -0.02470655
Ar      12.80343178       2.47769099       4.10785950       0.08462811      -0.02295730       0.03180956
Ar      17.07591384       7.01203605       3.80689864      -0.00954291       0.10361575      -0.01953510
Ar       4.88872685       3.28053229      11.79269051      -0.02707873      -0.00086570       0.05627814
Ar       4.70148545      15.01707232       4.42921354       0.02926616       0.01105996       0.03497142
Ar      14.01047597       5.58103524       5.24981736      -0.06884001       0.06492848       0.00479709
Ar       9.03053095       5.68358119       7.58059444       0.03746515       0.00464981      -0.05416634
Ar      11.35691193      14.31320085       9.18462825      -0.06747132      -0.04335541      -0.05245101
Ar      15.65847408       5.56103063       1.10907633      -0.01681941       0.02568558       0.04585710
Ar      16.00120080      10.16186825       9.96679235       0.10708148       0.00354447       0.02323591
Ar       3.48564165       1.81741597       8.35596079       0.08332010      -0.04592211       0.01347784
Ar      11.86329745       4.69433219       0.36117881      -0.05562391      -0.04220054       0.03694211
Ar      10.46221861      11.65701947      12.05436182       0.04800142       0.01283288      -0.02311472
Ar       3.19810032       0.67352144       1.41718137       0.04488372       0.05417700      -0.00097001
Ar       2.89019698       5.22333969       5.58144049      -0.03536461       0.02224137       0.06942949
Ar      11.29522526       8.39678437       5.82178559       0.01017135      -0.05898141      -0.02939508
Ar      11.11092118      13.58006470       0.62177452       0.01045538       0.04689728       0.00630718
Ar       9.52962437       2.14106198       5.08973729      -0.05112474      -0.03360578      -0.03407813
Ar       2.04140423       6.50189084       1.08668266       0.09540147       0.04415289       0.01414036
Ar      12.98881598       7.97285847       2.47553215      -0.04263072      -0.04265849      -0.04077773
Ar      13.70490100       0.86298421      10.39327971      -0.03620079       0.03661417      -0.00660640
Ar       6.18903412       3.52339228       6.13871428       0.06645781       0.09175685      -0.05068303
Ar       5.97590282       8.43431218       0.38945155       0.00445440      -0.02529424      -0.07430293
Ar       0.52693432       3.22267122       2.52823362       0.02829471      -0.01083428      -0.00708605
Ar       7.83649527       0.02596751      16.68687310       0.01988337       0.04507228      -0.08990669
Ar       6.12193160       2.98815935      15.77689109      -0.05774775       0.05531201      -0.02369723
Ar      10.32856264       0.33954729       8.78694091       0.02291513       0.03546892       0.07898865
Ar       3.28345942       6.95594588      15.04142949      -0.02072551       0.03950299      -0.04255082
Ar      15.22231606      14.30851237       4.06023994       0.03981636       0.00755068       0.03090169
Ar       8.11311397       4.56021009       1.24018602       0.00309433       0.09836179       0.02705431
Ar       7.63192582       2.52695252       9.17240523      -0.03408356       0.05968879       0.02693090
Ar       4.18554104      11.71447579       9.25021393      -0.05246526       0.05452801      -0.02675240
Ar       6.84112680       9.58173343      11.60658653       0.08676944       0.01385256       0.04783345
Ar       2.17934257       0.99029669      12.45407326       0.02079411       0.04638884       0.04602993
Ar      13.24020986       5.04488483      12.86448241      -0.03366979      -0.04003829      -0.07291099
Ar       0.80430437       4.17745653      15.69354948       0.05932189       0.11456836      -0.02590143
Ar       2.85514305       1.67338940       4.91792036       0.03841500       0.00799427      -0.03380823
Ar       0.66643742       5.43984319       9.78508413       0.04821097       0.00941940       0.03551610
Ar      10.48889210      16.01461458      12.49481303      -0.00712851       0.05821658       0.02396264
Ar       5.35182985       6.56053186       8.57765565      -0.00665090      -0.00890836      -0.06794382
Ar      13.36888784      10.06546704      12.40175645       0.04061844      -0.00839438       0.05419301
Ar      14.69062542       4.53679735       9.25355872      -0.06173498       0.01338438       0.03505704
Ar       6.78117716       1.27632426       2.79740560       0.05846042      -0.00287340       0.01760102
Ar       4.43221529       3.99580758       2.52172829      -0.01028332      -0.13054903       0.07128188
Ar      16.62850971       7.78515503      13.69230729       0.08678391      -0.01015764       0.06994918
Ar       2.04626159      15.11827855      14.60796935      -0.04709535       0.07653523       0.05252925
Ar      17.25944753       0.37633803       7.92153663       0.00825321      -0.08595249      -0.09507301
Ar       8.58718501      14.07224973      15.23661952      -0.10212071       0.02452081      -0.03139444
Ar       1.62365300       8.70322335       6.77215787       0.05099930      -0.10066024      -0.01599166
Ar       9.88385624       4.51364168      14.82913586       0.10203586       0.03217381      -0.02002699
Ar       8.10811594       5.10695130      11.44332352      -0.00789871      -0.07535404      -0.04531838
Ar      15.13725803      12.20157364       0.69273219       0.03994231      -0.00165914       0.09732634
Ar       7.60249217      13.51961517      11.47463443      -0.05695762      -0.06425835       0.00404071
Ar       1.13680528      12.15614571       6.46832854      -0.01494432       0.03138367      -0.00526680
Ar      13.61248584      16.84410373       6.78088281      -0.06587256      -0.03349337       0.06247567
Ar       3.60904128      11.19065823      16.79295415      -0.08969399      -0.04558862       0.00950952
Ar       9.69196909      10.10358557       2.35933519       0.08565034      -0.04001983       0.02979027
Ar      13.31105607       7.54971168      15.49145871      -0.10307155       0.02791558       0.03883509
Ar       7.37051758      10.03425052       7.97249680      -0.05862860       0.03001634       0.02159384
Ar      14.87686163      15.52379221      17.24247339      -0.00359521       0.05080669      -0.01213640
Ar      10.40402018      11.96130797       5.72006529       0.00170877      -0.00980217      -0.00735645
Ar      12.67875206      16.50931993       2.67650523       0.04037041      -0.10350655      -0.00117510
Ar      10.52222332       5.30716954       3.89671730      -0.03113190      -0.02625046      -0.06616810
Ar       4.11736117       8.31507991       4.00702348      -0.08090284       0.05587036       0.02895499
Ar       1.11137140      15.31714560       5.11070356       0.00725324       0.01158864      -0.06622664
Ar       4.04574223      14.46451678       0.52372968       0.04041422       0.15098172       0.00101113
Ar      12.19426218       6.97266328       9.13758878      -0.07361862      -0.05544767      -0.07339054
Ar      16.28896732       0.49457594       4.44770328      -0.08169537      -0.01597121      -0.01371003
Ar       5.40172574      17.08198322      13.89118245       0.00033397       0.03092494       0.00220419
Ar       6.84398220      17.06164873       6.23153825      -0.00488652      -0.04217265      -0.03860424
Ar      14.84716868       9.31715430       6.60893792      -0.05143378       0.01934964       0.04972866
Ar       0.38120369      14.58139121       1.76249711      -0.00763756      -0.12511460      -0.00751366
Ar      17.19367059       3.98403079       6.41524417      -0.01232578      -0.05376553      -0.04980136
Ar       7.12378762      12.09774977       4.44271572      -0.05257153       0.04693361       0.03338333
Ar      11.68535831      10.58138474       8.67285157       0.02711567       0.00977060       0.05332910
Ar      14.66481304       1.74539385      15.19643999      -0.02546252      -0.00326677      -0.04974545
Ar      14.69364077       2.09048391       1.21179721       0.07092912      -0.07747516      -0.05980590
Ar       7.68871583       7.42433246       4.73579484      -0.01403026       0.08871653      -0.03017323
Ar      12.98605468      11.39581907       3.39630332      -0.02416343      -0.03591213       0.04406137
Ar      16.43315773      11.01889156       3.48685533      -0.09921212      -0.14434005       0.01620626
Ar       3.48146372      15.20710776       7.77880870      -0.02724323      -0.09693651       0.04540847
Ar       8.24350559       1.51330031      12.89059736       0.06364992      -0.17021666       0.03314526
Ar       0.37140370       9.53018754       0.04082387       0.00809772      -0.02814570      -0.03311663
Ar       3.80618751      14.45026258      11.46438345      -0.10894780       0.08778538      -0.03448028
Ar       3.16239949      11.81242691       3.09251796       0.04049599      -0.01010189       0.06221372
Ar      12.72914658      14.21710612      14.89244306       0.04902109       0.09044882       0.05685015
Ar      16.54908095      16.65187450      12.14885638       0.06054186       0.06704903       0.00411149
Ar      13.96037120      13.61890498      11.28556500      -0.02155375      -0.10788590       0.01542719
Ar       7.31223642      12.39216524       0.55831302       0.08908606       0.16786361      -0.02986883
Ar       6.96961361       7.15008881      14.03277043      -0.09397357      -0.00071935      -0.00494848
Ar       9.73425539       7.58324531      16.98548452       0.01637764      -0.01866575       0.09071789
Ar      15.90359551      12.28771499      14.19345103      -0.07246615       0.04366760      -0.10765190
Ar       5.19906633      13.63595682      14.62419627       0.02044176      -0.12185696       0.00728625
Ar       0.65307978      13.33186218       9.76550736       0.07874765       0.00548845      -0.04545044
Ar      11.85767073       3.50888008       7.58650624      -0.07572080      -0.11587335       0.05190519
Ar       3.51499579       7.84147398      11.43386717       0.00749101       0.00379065      -0.10258824
Ar       7.98530874      15.03827907       2.70567280      -0.04966757       0.06125276      -0.01474430
Ar      10.99054871      10.87000681      15.59445781       0.03774537       0.04835218      -0.05786486
Ar       0.14166812       0.51953171      16.51169861       0.02148370      -0.04313209      -0.09518110
Ar      16.49432322       2.76631307      12.49638650       0.07199702       0.09217775      -0.04394986
Ar      11.33223388       1.00514646      16.41760597       0.05876126      -0.03024734       0.02510496
Ar       2.65363702      11.07976515      12.77259585       0.07260377       0.03517232       0.04846865
Ar       7.19535732      10.74698234      15.15640800      -0.00985602      -0.11420218       0.06847063
Ar       6.24201096      16.35350483       9.83956540      -0.06565119      -0.10651875       0.03436894
Ar       7.32807573      13.86878305       7.34625788       0.00637112       0.08059091       0.00166528
Ar      15.08171134      13.24932330       7.35851023       0.01210637       0.03198483       0.07536429
Ar      11.01811588       2.89968602      11.46958213      -0.04249009       0.01413091       0.03286272
