108
Lattice="17.35 0.0 0.0 0.0 17.35 0.0 0.0 0.0 17.35" Properties=species:S:1:pos:R:3:momenta:R:3 pbc="T T T"
Ar       7.73460938       2.09826635       6.37370381      -0.05037700       0.04921920       0.04973669
Ar       7.03030626       6.70278563       9.05918458      -0.03492704       0.06149464      -0.01597080
Ar       9.77358095       5.38986100       6.58436645      -0.04043790       0.13370782       0.01609886
Ar      16.87340534       8.02246858       5.93905310      -0.00009287       0.00275311      -0.00418658
Ar       6.78349022       3.40763515      10.90861389       0.07358601       0.02240946      -0.09784767
Ar       5.21717127       0.97752466       3.68710168      -0.01646718      -0.00819362       0.05503545
Ar      15.39197139       4.67107016       4.15799726       0.04152880       0.02238807       0.12379530
Ar      13.04564671       4.79497654       8.79646092       0.01347969      -0.01641164      -0.09980227
Ar      12.36500159       2.04039670       6.61857836       0.07005854      -0.03896867      -0.00552303
Ar      16.07144323       4.48614810       0.49911477       0.02435326      -0.01406645      -0.03152101
Ar      11.39672141       7.88373702       8.40217970       0.02211279       0.04410297      -0.12054678
Ar       4.50953632       3.32056047       8.01911056      -0.03314983       0.05402034       0.01011212
Ar      12.76667026       5.36558070       1.06607596      -0.05482403       0.00852306       0.10147509
Ar       6.39824954       6.14832760       5.65885343      -0.02069377      -0.00154062      -0.00641168
Ar       8.96598156       3.93895468       2.84737655      -0.01830742      -0.00785569       0.04081836
Ar       1.33826366       3.23787740       4.92698439      -0.04042523       0.06447542      -0.02746546
Ar       5.71747438      14.52848046       4.74152803      -0.02915351      -0.02053897      -0.03699671
Ar      12.34232447       2.57210556       2.88852086       0.03734560      -0.14510029      -0.01580099
Ar       3.27396175       7.00789699       9.56979678      -0.01359268      -0.05758193       0.07161322
Ar       2.56017233       7.39366489       1.12303809      -0.05960120       0.03180817       0.04348013
Ar      13.29935063       7.86615522       5.10112514      -0.02050140      -0.00141338       0.03252469
Ar      12.57561729      17.11073141       9.24852856       0.06000771      -0.02317964      -0.04428985
Ar       5.06066114       4.22831689       2.50581080       0.00774616       0.00116330      -0.02654612
Ar       3.10877852       7.27940534       5.89697415       0.04910806      -0.10921784      -0.02809309
Ar      16.16703219       1.49082323       2.30763700       0.02252881       0.00548849       0.05287437
Ar       6.39823956       1.50744366       0.16372062      -0.01987190       0.07676145       0.07442137
Ar       4.78489335       2.24075822      13.97812733       0.01713969      -0.00109925      -0.00389784
Ar      10.95705004      17.24152212      14.39147819      -0.05475300       0.02373082      -0.06125225
Ar       0.04887659       0.60925602      15.71304771       0.08939562      -0.02628449       0.05519619
Ar      15.91830897       1.47954627       7.18651088       0.06546763      -0.02019388      -0.03829908
Ar      10.32501634       6.48500745      16.06975363      -0.01335540       0.03167631       0.02299685
Ar       9.96717429       3.06610605       9.23549142       0.00068558      -0.05181681      -0.00843340
Ar       8.51109183      10.34454612       9.12010780      -0.01114417      -0.11530951       0.00045795
Ar       8.50346039       2.19449046      13.54677707      -0.03448148       0.04713445      -0.06982981
Ar       2.20677539      16.76776939      12.62231367      -0.12538498       0.05534224      -0.07364632
Ar       1.92780428       8.59753496      12.66117370       0.04042920      -0.00025992      -0.12381002
Ar       0.18548469       6.19891075      14.89473178       0.02572311      -0.08091509       0.02102859
Ar       2.11718837       1.17594970       2.01565264      -0.02264517      -0.15299953       0.02922965
Ar       5.54622940       5.98098365      13.69901636      -0.04598844       0.00736345       0.05143642
Ar       8.81151112      16.48757436      10.66610667      -0.01995116       0.02099607       0.09788082
Ar       0.63264838       4.55290142       8.23679538      -0.01847986      -0.02163927      -0.06378498
Ar       9.42108707       5.49110468      12.50827487       0.01968602      -0.04026365       0.03728240
Ar      16.17871268       3.36388527      12.56289104      -0.09906567       0.02550166      -0.01623283
Ar       8.89150443       7.79384775       2.14290095       0.09151940      -0.01808778      -0.05914983
Ar       2.97155098       3.78862949      16.52626387      -0.06949767      -0.12582380       0.06098999
Ar      16.67272977       6.63310501      10.99338297      -0.04296641       0.04324444      -0.06689218
Ar       4.12246445       9.03479970      15.27451054      -0.05169194      -0.07511810      -0.10331730
Ar       2.09387390       5.00174898      12.14515956      -0.03313784       0.04354092       0.03505133
Ar      12.45426399       8.07665882      13.05739252      -0.08445229       0.02594494       0.02334677
Ar       1.99984008       0.65961346       9.24005921       0.00547341       0.05797143       0.00091895
Ar      13.53340207       4.93697338      14.98759945       0.05667530      -0.03171662      -0.01766835
Ar      12.39286561       2.76038518      12.41997727       0.07739838      -0.05302192       0.00630227
Ar      13.91157809      16.63241548       4.52119752       0.11159008      -0.06737201       0.01535654
Ar       6.94487200      14.34908874       8.77240047       0.11974774       0.05176943      -0.05183206
Ar       1.45648144      10.44693699       3.20367545       0.05163567      -0.04109681       0.00417780
Ar      15.32622498      11.92387609       6.14546619       0.00333416       0.07554828       0.04078848
Ar       4.93190598       9.97584862       1.47926816      -0.05467608      -0.03892270       0.04405309
Ar       7.44281249      11.71196343       3.46045306      -0.01864922       0.00653860      -0.03927645
Ar      13.21067834      11.57683319       2.23197890       0.04594291      -0.07965763      -0.02866223
Ar       9.00156620       8.68667541       5.68546246       0.00340415      -0.03569297      -0.09831142
Ar       0.29874164      15.66528160       1.08525062      -0.11839218      -0.02246185       0.02222278
Ar       6.08217046      15.37894508       1.15949975       0.05125884      -0.04400807       0.06810977
Ar      10.33687736       2.91313112      16.58847038      -0.01033831      -0.06430973       0.01479536
Ar      16.33180189       7.82240519       2.36452218      -0.13621679       0.11859664      -0.01887496
Ar       5.87020447      10.21913811       6.29653731      -0.03729960       0.00343556       0.02267099
Ar      12.78827939      14.37022674       6.72695097       0.02731510      -0.02716138      -0.08013107
Ar       2.46207583      12.83756058      16.21787954       0.00313789       0.00516206      -0.01759901
Ar      11.66938139      10.96296255       6.45333101      -0.01400637       0.04294539       0.07731683
Ar       0.06374282      16.47413358       4.84758490      -0.00306415      -0.04708027       0.01920859
Ar      10.73863415      12.81042182      16.80052408       0.06373545      -0.05533474      -0.04076455
Ar       8.67857195       0.10513101       3.62583757      -0.00868475       0.03833595       0.00918969
Ar       9.75320545      16.22774435       6.90190606      -0.03391993       0.02207429      -0.01621300
Ar      16.54701195      12.41320261       0.84773012      -0.00275757       0.07762473       0.00904967
Ar      16.14849671      14.88925631       7.77026486      -0.00777325      -0.00139138       0.01578975
Ar       1.81409600      13.41325255       5.93997087       0.04217800       0.05628536       0.00379846
Ar       9.02275217      13.02673491       6.29377927       0.07276348       0.00327958       0.06876764
Ar      14.01706876      11.41689254      15.89629465       0.02326522       0.02850802      -0.08862823
Ar      13.70612709       1.60179603      17.03753470       0.02915240       0.02280896       0.04960043
Ar      11.81957674       9.03135760       0.48946968       0.01906589       0.03671449       0.03540895
Ar      10.09230527      14.03973651       2.98428161       0.09284327      -0.04090627      -0.02462072
Ar       3.06862153      13.65251949       2.55747791      -0.02287685      -0.05140232       0.06466075
Ar       3.33050109      16.70984969       6.18236287       0.02227264       0.00049515      -0.00031614
Ar       6.72758908      16.32665570      14.57654726      -0.01977902      -0.01575941       0.00645913
Ar       0.88672050       9.48143241      16.25217529       0.01307965       0.03073715       0.04778219
Ar       1.55096614      11.98407782      12.25145376      -0.05233982       0.02612638       0.06201384
Ar       2.43184440      10.49486151       7.88915605       0.01499196       0.16998588      -0.05302533
Ar      12.55931195      11.06303532      10.79343250       0.00432667      -0.00189052      -0.05684341
Ar      15.78519755       9.79303650       9.58554833      -0.05462846       0.02804320      -0.12442823
Ar      14.73852106      13.90356752      11.13401652       0.04598208       0.02251675      -0.05474741
Ar       5.35418311      14.03557039      11.89743568       0.01570291      -0.04331744      -0.07922077
Ar       6.50361353       6.76760048      17.12148675      -0.03806074       0.01049834       0.00813790
Ar       8.58352395       9.86228164      15.91917213      -0.02991316       0.01085821       0.03278444
Ar      15.94156607       9.74100413      12.96955858       0.06225188      -0.04389320      -0.02571059
Ar      16.68743103      13.99849023      14.41870362      -0.01659970      -0.02027865       0.03679998
Ar       2.98543679      14.37008379       9.45048787       0.05468022       0.03928421      -0.04839164
Ar      16.27348525       0.06451485      10.48509465      -0.12102955      -0.05886991      -0.05878812
Ar       7.46938969       8.74537578      12.33675588       0.02041213      -0.08596522       0.10122639
Ar       5.74473241      12.26816676      15.27565550       0.01008612       0.13376917       0.06480117
Ar      12.91668537      15.51862225       0.63303456      -0.04376461       0.07718192      -0.09037128
Ar       3.17466036      16.51184012      16.23492463       0.04311049      -0.01639773       0.07742912
Ar      14.60892847       0.18515668      13.74788238      -0.02023161       0.00157903       0.09369358
Ar       9.33868540      16.61424043       0.02756911      -0.01240251       0.00253904      -0.01027022
Ar       4.91069990      11.09525449      10.13648566       0.01371355       0.07509626       0.07701318
Ar       8.43283097      12.32742710      12.86787685       0.00256625      -0.03274158       0.09271552
Ar       5.38221104       0.05371893      10.82928552      -0.00398355      -0.05564317      -0.00006855
Ar      10.79247800      13.81226721       9.29756939       0.00147299       0.02717307       0.04838485
Ar      11.99712601      14.17375047      13.58537863       0.05956718       0.04906138      -0.06655251
Ar      14.72079801       7.85656641      16.43553806       0.00477049      -0.00516138      -0.00744655
