108
Lattice="17.35 0.0 0.0 0.0 17.35 0.0 0.0 0.0 17.35" Properties=species:S:1:pos:R:3:momenta:R:3 pbc="T T T"
Ar      10.67376880      14.48307379       7.15948116       0.06093642      -0.05408197      -0.05185326
Ar       8.39399727       8.94578019       9.33998256       0.07594645       0.04723482       0.02742538
Ar      12.94932218       2.77387074       3.51347222      -0.01943235      -0.02877194      -0.03498639
Ar      16.77244520       4.78269431      16.49241635      -0.07108724      -0.04227577       0.02834457
Ar       5.13360007       6.75916445      10.20638274       0.02944126      -0.03704510      -0.00145823
Ar       8.38726307      13.34156217       3.45671710       0.00988371       0.04716837      -0.06073434
Ar      11.92804217       3.95926400       7.97568688       0.07827585       0.03347753       0.02139238
Ar       6.57158403       7.97368647       6.75676856      -0.09628612       0.03707108      -0.00159709
Ar       7.96645305      16.19006261       9.55425544      -0.08139989       0.08184786       0.04918853
Ar      15.08416035       0.92955645      16.98094730       0.00793661      -0.03591773       0.00013996
Ar       1.55129408       7.71623882      10.62517568       0.07046512      -0.02263566      -0.03023154
Ar       1.09984266       5.26755484       7.94147376       0.10344872       0.00214234      -0.02708554
Ar      13.25181419       4.07498732      17.08729604       0.03475351      -0.10923827       0.02523918
Ar      11.30167932      17.03997077      17.23624078      -0.05832582      -0.07099446      -0.04028530
Ar       5.55844546      11.53652010       2.06897613      -0.03981584       0.03065551      -0.04912971
Ar       3.74441238       8.30217790       3.47091625       0.02027645       0.02293715      -0.03665468
Ar      10.91061087      11.36968703      10.79044153       0.04035634       0.07749602       0.15606812
Ar      14.43804867      12.33409237       1.39567690       0.01873581      -0.08626818      -0.04014763
Ar       4.54358918      16.80468119       8.72533946      -0.01101857      -0.07621207       0.04644865
Ar       6.78154804       6.28869262      17.29341351       0.12462882       0.00835507       0.06895267
Ar      13.75750318       6.89195733       2.16740911      -0.00889859      -0.00345046       0.11186794
Ar       1.63793603      14.99377127      11.49919499      -0.10911016       0.02494726       0.03310057
Ar      11.71254644       6.45993327       5.21381567      -0.08513667      -0.05181210       0.06046570
Ar       5.34011264       4.52607030       2.87215409       0.01102049      -0.08655764       0.00567132
Ar       2.40354219       2.56705586      16.44076493      -0.03746939      -0.05546055      -0.01803019
Ar       1.84248881      11.53288521      16.92897475      -0.05903448      -0.01282722       0.06428236
Ar       1.67801766       4.52702232      11.84238723      -0.01409047      -0.05258245       0.01140370
Ar      12.42239311      14.73116883      10.43432182       0.03631535       0.08836472       0.05084547
Ar       4.70502808      10.19470981       9.30197318      -0.10882966      -0.01688195       0.02319892
Ar      16.86908575      16.56376100       4.73456955       0.05862678       0.08759080      -0.00427232
Ar       2.85321609       1.74755955       2.54559238       0.02247692       0.04189811      -0.00562883
Ar       8.99471463       3.62732547       4.43309287      -0.04600165       0.05885304      -0.16564041
Ar      15.10013016       7.15840938       6.58259342       0.03748038      -0.10197164       0.08085780
Ar       4.78348361      13.43224708      10.34619256       0.00435386       0.07925374      -0.00986074
Ar       4.25467817      16.09216682       0.69618893       0.01881886       0.02592195      -0.00662405
Ar      15.57980610       3.17153166      13.54332182      -0.08205870      -0.04798623      -0.00371255
Ar       0.93749801       1.24262955      12.17599859       0.00988396      -0.05284619       0.07554896
Ar       3.03705875      15.87744109       4.04162237      -0.01372836       0.02786995      -0.04822134
Ar       4.62460038       3.80195700      13.93546442      -0.06579059       0.04597645       0.12327848
Ar      15.99425601      14.14700123       9.82334137      -0.02339405      -0.02965431      -0.03402388
Ar       4.90439739      10.96542127       5.91286461      -0.06186277      -0.06972151       0.00633913
Ar       9.67681133       4.93705172      15.70785817       0.01358354       0.00199723      -0.00718397
Ar       3.51362104       7.19789955      13.43144029       0.04608793      -0.07683726       0.00029949
Ar       2.53341207       6.19843846       0.67793447      -0.07513835       0.01694880       0.01503323
Ar       6.18991020       2.15422939      17.28608195       0.01561489      -0.04451447      -0.07678303
Ar       3.28836244      10.73079533      12.38573053       0.02324937       0.08479245      -0.00041967
Ar       6.39376318      13.37429492      16.36492717       0.01579585       0.06653597      -0.04525528
Ar       2.08948594       1.55151427       6.09049411       0.07565626      -0.02087069       0.01306601
Ar      12.14796679       1.53022089      14.44303190      -0.01994895      -0.05433438      -0.05935922
Ar       0.30245867      17.27156509       8.57715452      -0.02883866      -0.03943621      -0.10242171
Ar       7.89073818       5.45337768      12.59656287       0.00269695       0.05312854       0.03044660
Ar       8.07982750       4.67225407       9.12289456      -0.02676435       0.04279316      -0.08454948
Ar      14.00115701      16.16157709       2.32081432      -0.06631918       0.00289362      -0.00743439
Ar       6.40391392       1.68736892      10.95295522      -0.11421509       0.05921221       0.05584414
Ar      16.29105231      13.45271018       6.26439913      -0.03041014       0.05394270      -0.10319411
Ar       9.50100289       0.72965918       6.83091902      -0.05278750       0.08412845      -0.01109858
Ar       7.30896884       7.65907428       3.33623750       0.03440296      -0.02916879      -0.00099639
Ar      10.85501523      13.43277929       1.14280841      -0.02683598      -0.03509761      -0.00657322
Ar      10.06327999       6.06210028       1.64468920      -0.16428051       0.01182831      -0.06212093
Ar       7.61156084      12.19857052       8.35569859      -0.05721318       0.00169773      -0.00958875
Ar       0.61859855      16.61856211       1.31399590       0.07143053      -0.00832343       0.01580669
Ar       9.44944791      12.61275771      14.61921539       0.01030345       0.11470663      -0.00707610
Ar      10.53395683      16.62763522       3.91499441       0.04963612       0.03094532       0.03860130
Ar      12.92584337      10.77271544       7.23048487      -0.03954699       0.06190494       0.06959852
Ar      15.47999766       9.71590197       3.74289271       0.02259248       0.06060236      -0.01415010
Ar       1.87492903      12.36586151       4.39285543      -0.04711257       0.03099014       0.00938687
Ar       8.36897001       9.97141092       0.33275647       0.03721547      -0.05479097       0.04517251
Ar       9.32055775      10.43654614       5.87788911       0.07343555      -0.10383194      -0.02196990
Ar      16.48337171       2.19769525       2.40974348       0.02019837      -0.09125025       0.05824230
Ar       4.70344682       0.07908352      14.55385527       0.05734209      -0.04208700       0.02541804
Ar       2.96259298       2.60740526       9.36645276       0.05211313       0.02133252      -0.10646869
Ar      11.97581331       7.32378696       8.78053231      -0.00627696      -0.00826789      -0.09159300
Ar      14.93572389      10.55412505      15.72656380       0.01575600      -0.02632684      -0.01213423
Ar       1.08829649       4.98050273       3.96086304      -0.01299383      -0.02888463       0.06038279
Ar       4.34002964       5.11092725       6.23542008       0.02620731      -0.00247462      -0.01573283
Ar      13.34725768       8.69046101      11.78554668      -0.02931525       0.10032901      -0.00943004
Ar      13.47571437       7.15712758      15.33017014       0.04629110       0.03183848      -0.01912241
Ar      14.91350854      16.89348981      12.71300930       0.04314759      -0.06494857      -0.04795530
Ar       0.82914067       8.64870264       6.31424886      -0.02484310      -0.02592770      -0.04827331
Ar      14.42271315      14.85196687      16.36244790      -0.01457368       0.11158461      -0.08315573
Ar      12.73117359      13.97470486       4.69281523      -0.08014524       0.01050932      -0.01494040
Ar       2.33371904      14.49638236       7.20117636       0.01897496      -0.00889767      -0.07058674
Ar       9.98825963       2.56283321       1.34856759      -0.02655919      -0.04139287      -0.04756253
Ar      16.58015835       8.37940914       0.68351481       0.07178521       0.04563134       0.01715668
Ar       3.28224613      13.72743435      14.61583388       0.00018513       0.02298455       0.09634994
Ar       6.30421931       2.03913603       6.31075828       0.02814045       0.13637293      -0.03194691
Ar      12.92329611      12.70067777      13.50634338       0.08558905      -0.08916399      -0.02221922
Ar      16.66923024      12.43730122      13.35627111       0.03182073       0.09644097      -0.01139391
Ar       6.83680876      11.01797877      12.34337125       0.09943710      -0.07572435       0.04869106
Ar      10.15976814       8.22681949      12.50534007      -0.00589419       0.02340496       0.01688946
Ar      11.24426130       4.99935649      11.55894261      -0.01839753      -0.00468932       0.02443154
Ar      11.33654777       9.81067784       3.08328487      -0.02466150       0.00935217      -0.01372698
Ar       0.97039760      16.76135226      15.14042980      -0.01709537      -0.01392902       0.01317830
Ar       8.03132668       1.91730029      14.29418021       0.02202861      -0.08125692       0.05902261
Ar      16.40367058       7.31853709      13.52825328       0.04153529       0.01012855       0.01759384
Ar      15.46256296       2.70824400       5.97336018       0.06333888       0.04341893      -0.08233766
Ar       5.04771345       9.42410906      16.09621238       0.04699892      -0.04765318       0.06709857
Ar       6.59150868      17.21197886       3.33737529      -0.00442596       0.05508971       0.04851054
Ar      11.26146779       9.81562359      15.63080264      -0.01589973      -0.08696725      -0.02008137
Ar      14.27934466       1.70088559      10.04360253      -0.03223373      -0.01665206       0.03466036
Ar      14.97760808       5.29691900       9.93160916       0.05284974      -0.04716548       0.10716115
Ar       8.13875694      16.52987728      16.50735861      -0.04601096       0.02809686       0.07077773
Ar       1.41849776      11.54598881       8.87994104      -0.05565205      -0.03574839       0.02096920
Ar       6.62328138      14.92938460      13.02419222      -0.02737897      -0.03037812      -0.00484425
Ar       9.92598032      16.39132411      12.48420797       0.01944319       0.01662656      -0.00138865
Ar       6.03330045      15.00493799       5.94008805      -0.05991690      -0.00755761       0.04087755
Ar      15.45268311      10.40862203       9.74584511       0.04558651       0.05802391      -0.05295020
Ar      13.03202775       0.33343434       6.60337342       0.08992459       0.02046714      -0.09252960
