108
Lattice="17.35 0.0 0.0 0.0 17.35 0.0 0.0 0.0 17.35" Properties=species:S:1:pos:R:3:momenta:R:3 pbc="T T T"
Ar       9.48541751       1.59148324       6.57093319       0.03207462      -0.08196745       0.01861039
Ar      10.90762696       7.49701165      13.22322495       0.02311698       0.06460419       0.01206482
Ar      12.49891729       2.31330938       5.06118391       0.02509267      -0.05818433      -0.02840308
Ar      16.83486189       7.89317146       5.61059088       0.06623669       0.01909016      -0.15592714
Ar       6.50104069       2.95244024      11.57813975       0.02726663      -0.03219010      -0.00409195
Ar       2.97929143      15.19243888       4.82546860       0.03440504       0.00015109       0.08163511
Ar      13.97626419       5.48851953       4.90867476      -0.02685292       0.06051483       0.00546127
Ar      10.42754863       7.19169923       6.32500971      -0.10485384      -0.00276149      -0.00456435
Ar       9.14067558      15.11034144       7.64645919       0.01048667      -0.01904735      -0.01732984
Ar      15.02073509       7.22055239       1.15052899       0.01195418      -0.04134929      -0.07589691
Ar      16.83526457       8.97892551       9.07473596       0.06588394      -0.07998696       0.03449623
Ar       4.47486376       2.87222462       8.48577040       0.02336042      -0.04929344      -0.02114828
Ar      12.39371631       4.56860198       1.08139296      -0.01037293       0.02970286      -0.01558022
Ar       9.75091341       8.31546954       9.76630727      -0.02744080       0.02372567      -0.01350833
Ar       3.69189831      16.79623630       0.98258327      -0.01005187      -0.11974916       0.00090354
Ar       1.79193391       5.27689407       6.38826185      -0.04828286      -0.05580819       0.04182973
Ar      11.66766900       8.94423081       3.68225379      -0.03757923       0.02353415       0.02696857
Ar       8.73295450      15.77474537       2.27525436      -0.07847137       0.03289590      -0.00987728
Ar       9.82286002       4.06017328       3.42084454       0.05825057       0.05850018      -0.08597750
Ar       1.74380813       6.84383852       2.17296951       0.10668748      -0.07959853       0.00123589
Ar      15.46829958      10.32381935       3.88907413       0.03431680      -0.03180002       0.00407476
Ar      14.97349528      15.92967586      10.99385495       0.00083030      -0.01223018       0.01175684
Ar       6.56287189       4.36588970       5.53474629       0.03966257       0.02526881       0.00479853
Ar       4.95349762       7.31508494       3.76781317      -0.11043698      -0.08120478       0.05755971
Ar      16.46098203       4.11058048       1.75608014       0.06836548      -0.03647597      -0.00944444
Ar       6.40039823      15.12456970      15.69739543       0.02701364      -0.03797446      -0.01590780
Ar       6.05083087       2.92767671      15.34439978      -0.08696214       0.05728255      -0.01627967
Ar      12.01230986       1.60728372      13.91804774       0.06228172       0.07997625       0.01036409
Ar       2.60284292       1.40460209      15.60599403       0.08032299       0.09322734      -0.02447938
Ar      13.94402634      16.16953138       5.61703273      -0.01309412      -0.00175653      -0.01739612
Ar       7.09493881       5.56223504       1.07094445      -0.00142625       0.00053073       0.03336352
Ar       8.62021506       4.63627662       8.64283089      -0.02215282       0.04650413      -0.09625566
Ar       4.99815083      10.24856203       9.67660375       0.03674946       0.03585548       0.15331984
Ar       7.17425210       5.84295744      13.30916661      -0.01673079       0.01785174       0.03626588
Ar       4.48584616      16.31817059      11.76788608       0.04300207       0.02766391      -0.13323382
Ar      16.60249416       5.51430171      11.94348450      -0.04906405       0.09234785       0.04145369
Ar       0.96970356       4.95287584      15.80851118       0.05028233       0.00809656      -0.03902679
Ar       2.52617218       1.48639453       3.73101627      -0.01656602      -0.04600817       0.04010127
Ar       3.18665282       4.63068786      12.99577711      -0.02784808       0.03851381       0.04053405
Ar      10.83118983       0.84627317      10.31358783      -0.05733447       0.01383532      -0.01845813
Ar       5.83275440       6.15138374       9.99491934      -0.00280021       0.00339999      -0.04961051
Ar      13.61461979       7.97551817      10.71391039       0.01125033      -0.04288460      -0.04263616
Ar      14.03894121       3.06821404      11.05455105       0.03252105      -0.01438885      -0.00237461
Ar       6.27503737       1.51976809       1.57039004      -0.03467585       0.02554850      -0.00448724
Ar       3.54108870       3.98410112       0.80955060      -0.03453966      -0.00893415       0.00906310
Ar       1.09565660       7.98878800      14.28294839      -0.05051507      -0.07870488       0.05006695
Ar       1.87652272      11.43357537      15.02506947       0.01409771      -0.05363784       0.06901517
Ar       0.48026946       1.26636505       9.10969935       0.02319729      -0.08853200      -0.00706431
Ar      10.44061454      11.49177194      14.86010741      -0.03020511      -0.03448507      -0.05527381
Ar       2.37674912       6.78173431       9.98967807      -0.02583747       0.02949883      -0.03383777
Ar      10.18757666       4.74596575      15.41384961      -0.09383078      -0.05681971       0.04738889
Ar      10.20246312       4.21384356      11.85354682      -0.01213776      -0.00616697      -0.00577106
Ar      16.01177542      12.95138544      16.70594292      -0.09582911       0.03532686      -0.07691799
Ar       8.22930009      11.73884663       9.86573097      -0.04787351      -0.06021416       0.03775635
Ar       1.88446442      11.49459269       7.85562944      -0.06506735       0.06978320       0.01361616
Ar      14.07527116       1.31391509       8.23718768      -0.01030488       0.02731771       0.05030331
Ar       3.54337360       9.36226705       0.37012332       0.06222376      -0.10383685      -0.06651313
Ar       8.85040654      11.50569671       0.62199541       0.07369136       0.09533694       0.06513646
Ar      12.39203527      11.17863380       0.92441245       0.06202933      -0.08518880      -0.04618942
Ar       7.39647497       9.21411646       6.85775763       0.03272605      -0.02407581       0.06679096
Ar      13.66637593       1.07111123       2.22628429      -0.10415412       0.02489966      -0.06430498
Ar       9.04618084      11.60062896       4.15211837      -0.05606517      -0.03846827      -0.05136586
Ar      10.40598305       1.84279866       0.39369195      -0.02256101       0.09755211       0.04445907
Ar      10.70779971       8.34670441      17.11936015      -0.07471833      -0.04326448       0.08902492
Ar       3.28548914       8.46693296       6.76776275       0.04879897      -0.04079391      -0.05832809
Ar      17.23906549      15.89965051       6.79473669       0.06138308      -0.01420988      -0.10173162
Ar       1.95048322      13.46256436       1.14594589      -0.03755297       0.07833514      -0.00457709
Ar      13.81181877       8.68779968       7.39648421      -0.00960578      -0.03120165       0.04813125
Ar      16.25496020       2.09936263       4.87536186       0.04345673      -0.01477356      -0.03545397
Ar       8.61946812      14.26692372      12.36433387       0.07532948       0.07315698       0.02221776
Ar       6.37735565       0.31428794       4.82770742      -0.03710910      -0.06309310      -0.10616675
Ar      15.44759602      12.21693712       6.99959987       0.04916008      -0.02610173      -0.05830144
Ar       0.11104624      16.76833303       1.49921600      -0.05537611       0.01991493      -0.05736950
Ar      16.32076921       5.12683298       8.19597076      -0.03553656      -0.06094840       0.08569093
Ar       5.97021141      10.36474785       2.58725494      -0.00254563       0.10283699       0.04447982
Ar      10.71444251      10.75775980       7.35704774       0.05768795       0.01799080      -0.02421006
Ar      12.28314507      14.70044305      12.98653775      -0.11047497       0.14342641      -0.04119329
Ar      15.55993191       2.32231451      16.05708640       0.10763943      -0.06316066      -0.08523012
Ar       8.52393834       7.56493113       3.35953222      -0.09588865      -0.06271045       0.05407661
Ar      12.65143424      12.81710985       4.53797093      -0.00084592      -0.01865395       0.09761216
Ar      17.15789042      14.20014212       3.71541832      -0.10086041       0.07951679      -0.03225733
Ar       3.53910974      16.64124030       7.98203916       0.02066007      -0.01893459       0.12324470
Ar       8.52854762       0.33305404      13.55005584      -0.02790236       0.03743617       0.07665983
Ar      17.26756054       9.98045387       0.45506593      -0.03520678       0.01693415       0.04153903
Ar       4.05936277      13.58102206       9.49012253      -0.02944798      -0.00524013       0.00051079
Ar       2.06414282      10.70425961       4.24741963      -0.00167855       0.09046575      -0.07217716
Ar      11.47666589      11.39224762      11.23698185       0.08745676       0.06896550       0.03976647
Ar      16.68637248      15.45145562      14.02753184      -0.03932745      -0.00933112      -0.01058658
Ar      14.91752555      12.37664627      11.27686157       0.00412935       0.02151987       0.01878850
Ar       5.77464496      11.82246132      16.35020519      -0.03644657      -0.01537243       0.02203432
Ar       4.56515379       6.67084318      15.54609800       0.21262297      -0.06368132      -0.00661509
Ar       7.28433855       8.52999839      16.34572138      -0.01924326      -0.03320017       0.06575238
Ar      14.05173003      10.79634308      14.25308665      -0.02159520       0.00902568      -0.07648966
Ar       4.71746436      12.67383433      12.79513991      -0.07360029      -0.02652108      -0.01777496
Ar       0.64137938      14.33239452      10.50426024       0.00997321       0.03903171      -0.06743319
Ar      12.64886518       4.52029089       8.14929968       0.02000627      -0.04107454       0.02495320
Ar       4.59028417       8.55845759      12.56221997       0.02699840       0.01130888      -0.04097765
Ar       5.74075352      13.77142019       2.04868940      -0.02631748       0.03829824      -0.03005672
Ar      13.76932980      14.98083664       1.17818977      -0.01012810      -0.02580598       0.04073283
Ar       2.91204913      15.12452548      15.02567915       0.02374120       0.01227974      -0.04487240
Ar      17.18367713       1.34134514      12.47870933       0.07839437      -0.03514318       0.04815461
Ar      10.68117392      15.08813226      16.33654466      -0.05497606       0.00431235       0.06147688
Ar       2.04386308      10.50065614      11.57547442       0.04522987       0.09801439       0.05288926
Ar       7.88201375       9.66973051      12.64619889       0.02232236       0.05075606       0.03881097
Ar       6.78938320      17.20172391       9.27330943       0.04601195       0.03619615       0.00084465
Ar       5.32210049      12.56075201       5.70927153       0.01949010       0.04798780       0.04703159
Ar      12.50190663      14.25355289       8.67992996       0.06839930       0.02609824      -0.04507793
Ar      14.71883907       7.43248630      14.19115665       0.00003103      -0.10520538       0.07119649
