108
Lattice="17.35 0.0 0.0 0.0 17.35 0.0 0.0 0.0 17.35" Properties=species:S:1:pos:R:3:momenta:R:3 pbc="T T T"
Ar       7.74862498       2.46942097       7.70945041      -0.06577624      -0.04921280      -0.03068947
Ar       9.09946402       7.41767563      11.42754277      -0.00197957      -0.05870127       0.02901914
Ar      10.77402916       3.63594532       5.10127354       0.04703229       0.04443664       0.05606843
Ar      16.57912743       7.59017952       5.39186250      -0.04578155       0.03518431      -0.09541676
Ar       8.63289265       3.64107623      11.53971166      -0.06135131      -0.02761696       0.01644961
Ar       4.17643964      14.54622442       3.62607820      -0.01448202      -0.04264845       0.04436235
Ar      14.85105249       3.87528544       4.00786475       0.03342291      -0.03978603      -0.02706390
Ar      14.29370311       5.11360206       7.07993361      -0.07454531       0.08889455      -0.06199761
Ar      10.07261588      17.05802455       4.94033280       0.00079184       0.07906561       0.10779645
Ar      14.99731638       6.35249968       1.54915467       0.01273825      -0.03290133      -0.00751164
Ar      12.96702642       9.89369376       7.54847233       0.03566633      -0.06582927       0.04069247
Ar       2.85247230       2.44887385       8.97039415      -0.05422321      -0.05051979      -0.02443287
Ar      11.00913925       5.62699240       1.91870638      -0.09240989       0.01192562      -0.05336276
Ar       9.95005958       6.63345043       7.28432947       0.09400398      -0.01976102      -0.10919896
Ar       8.26851695       2.42166638       2.31699626      -0.04502857      -0.03512466       0.06201398
Ar       1.45008481       4.51981449       6.40710574       0.11170726       0.05398485       0.01425712
Ar      10.10402183      11.14411048       5.11327529       0.01516304      -0.01399912      -0.01843580
Ar      11.60206022       1.74252450       2.20075695      -0.01292226       0.05320525      -0.04984094
Ar       6.52404995       5.87013350       7.96208047       0.01667553      -0.02057894      -0.01413248
Ar       1.36724307       6.23845582       2.37669030       0.03172889      -0.06535453       0.01291100
Ar      12.98736504       7.32758574       4.55298760      -0.11770261      -0.01173637       0.05313114
Ar      13.56403360      15.87491678      11.42559170      -0.07421605      -0.02933665       0.01462314
Ar       4.98048356       3.41918686       5.78206129       0.00718280      -0.00850013       0.11801227
Ar       4.36131335       7.19771036       4.91346469      -0.02320809      -0.01607871       0.00434824
Ar       0.55140381       2.87620150       1.57065398       0.01849471       0.00122716      -0.13900194
Ar       7.54531426       1.11103623      16.17770669       0.00636052       0.00763675      -0.00830822
Ar       4.40776724       2.32432464      15.00414737       0.14864804      -0.09281724      -0.06248140
Ar      10.87801768       0.03506624      13.79521628      -0.04895834       0.09709380       0.00935520
Ar       0.94228223       0.09483431      16.11480699       0.01583920       0.00944961       0.07848676
Ar      13.72023247       0.53763802       4.78473935      -0.04097229      -0.11630759      -0.01952417
Ar       7.50573638       5.35894193       0.62993142       0.04874569      -0.06491870       0.02973444
Ar      11.87787774       3.98647302       9.79158830      -0.00067525      -0.03734093       0.11927509
Ar       6.17141124       9.29733586       9.87371411      -0.02993411      -0.01713378      -0.07488407
Ar       7.35037766       4.29704005      14.68646813       0.01254036       0.07585207       0.08046522
Ar       2.73823623      16.66310870      11.71800091      -0.05134468       0.04622572      -0.10013548
Ar       0.90618668       7.35397400      12.81382718      -0.00876789       0.03182402       0.01549466
Ar       0.39341769       4.05697906      15.44617634       0.01021111       0.02678484       0.02247381
Ar       3.45463611       0.43103930       1.77902712      -0.04443829      -0.01449933       0.08653656
Ar       5.37928190       5.60928062      11.21088034      -0.06853152       0.06173792      -0.04197275
Ar       9.86251081       0.75456067       9.93102795      -0.09560518      -0.05875480       0.09693798
Ar       2.65613885       7.26520694       8.79331708       0.02364218      -0.04719717      -0.08467229
Ar      13.04540324       7.50257176      11.36163931       0.09064079      -0.05236725      -0.05534355
Ar      15.59337577       1.92249563      12.48813443       0.01481812       0.03503187       0.01443885
Ar       7.64466723       5.60014450       4.40642433       0.05858733       0.07139202      -0.01809055
Ar       4.63590665       3.93067267       1.85632731       0.00976524       0.05591010      -0.02935064
Ar      15.91164951       9.26886435      10.30548069      -0.03150397       0.04924960      -0.05620489
Ar       2.12501859      10.21865804      14.62600835      -0.11924265      -0.00045711       0.02394864
Ar       1.40604831       2.65438955      12.28085312      -0.06372928      -0.03936700       0.01870664
Ar      10.61550351      10.49836307      15.39097300       0.08326750       0.10305123       0.02731197
Ar      17.19517471       5.50480886       9.66313791      -0.00000057       0.04749046      -0.02187680
Ar       9.98724531       6.60481477      15.21876458      -0.01007629      -0.04264847      -0.02744094
Ar      11.61755717       3.94142573      13.28935566       0.11336943       0.06088993      -0.06486786
Ar      16.64897909      10.54151106       0.91411360       0.01484374      -0.03396134      -0.03843236
Ar       7.53139544      15.99398919       8.06551013       0.00501495       0.08165504      -0.02562645
Ar      17.06043410      10.73115450       7.21374539       0.09586831       0.07417488      -0.02719097
Ar       0.32690680      16.36561622       8.94628426       0.02046982       0.08975203       0.08503732
Ar       3.62084900       8.68699582       0.35666095      -0.03681895       0.05196673      -0.00479406
Ar      10.49856696      11.92452970       1.11480549       0.01159849       0.07407685      -0.05455230
Ar      13.58997458      13.11792859       0.01689694       0.02018368      -0.02654861      -0.07357504
Ar       6.90657638       9.49756245       6.22126997      -0.07567252      -0.08046352       0.02070023
Ar      15.60446624      17.09524253       1.06037387      -0.00141701      -0.06692974       0.02494265
Ar       8.65789319      14.11944566       3.48207283      -0.02648382       0.01536568       0.02865987
Ar      10.33393798       3.18254463      16.45380122       0.02007339       0.03131645      -0.03516067
Ar      12.64198803       8.75720131       0.82795993      -0.05685390       0.03901159      -0.01529286
Ar       3.41063983      10.81594234       6.63636540      -0.06493698      -0.02667265      -0.02089176
Ar      15.07528240      14.99844570       6.45383378      -0.07529796       0.08310048       0.01476694
Ar       2.86266869      12.44490656       0.75235269       0.00755394      -0.04300463      -0.03361735
Ar      14.98153388      10.88026856       3.99600131       0.02318869      -0.04680145       0.01202441
Ar       0.01134506       0.95177395       4.30754555      -0.02607358      -0.01310198      -0.08467511
Ar       8.61976890      13.83015052      15.73024201      -0.00147661       0.02748615      -0.05222748
Ar       6.61782858      16.82961184       4.20130091       0.06491562      -0.02289353       0.04501042
Ar      11.10926907      14.07920791       7.51349074       0.01984418      -0.08135671       0.01638250
Ar       0.10061639      13.92055150      16.53239220       0.09476342      -0.02428192       0.00513522
Ar      16.36580757       2.13561654       8.46025148       0.02544769       0.04961434      -0.03833050
Ar       5.85878498      11.06873246       3.34239645      -0.01282242       0.07656618      -0.04408661
Ar       9.94100684      10.28779591       9.11393541       0.04235504       0.02123715       0.00742051
Ar      12.47927085      13.48872696      14.08026536       0.01249637      -0.07901790      -0.01085386
Ar      14.35661293       2.60561968      16.27953932      -0.07211661      -0.03482070       0.03277105
Ar       9.69672725       8.56293680       3.34795252      -0.01033780       0.02159636       0.07547405
Ar      12.47343785      14.61747290       3.69004531      -0.11798805      -0.02586178       0.04754943
Ar       0.42146607      13.62284474       3.75737938      -0.01408345      -0.04452080      -0.00652975
Ar       2.98735570      16.79834189       6.53381733       0.05555083       0.08547284      -0.02898528
Ar       6.45043784      16.31633561      13.37354252       0.04727665      -0.06500186       0.01452062
Ar       0.38614959       7.28104564      16.43132661      -0.09453858       0.02979617      -0.03419330
Ar       6.45939905      13.41648378      11.22999833       0.11496031      -0.03170253      -0.12481444
Ar       1.29479967      10.07162263       4.06343867      -0.12738626       0.01301508       0.02132799
Ar      12.53970587      10.77384800      11.63633687       0.03267417      -0.01986354       0.01399802
Ar      16.10404122      12.23594932      12.58296406      -0.03640596       0.04638399      -0.04434505
Ar      14.39371867      12.91951826       9.20594403       0.05403327       0.01484284       0.16091751
Ar       5.26118263      12.52667945      15.18249309      -0.03466490      -0.11997975       0.02192679
Ar       3.62451622       5.87890630      15.38066025       0.06236977      -0.00860846       0.01068092
Ar       7.50866647       9.36275663       0.48394135       0.00068743      -0.04116753       0.01116571
Ar      14.36587296      10.17593279      15.06322601       0.02521702       0.00631849       0.06871366
Ar       2.66011972      13.18244968      12.62637180      -0.00997328       0.06026528       0.02850041
Ar       3.05146173      13.76678198       8.74180364      -0.06088846      -0.01203988       0.00960301
Ar      13.09604750       1.06178822       8.39168017      -0.02148583       0.10153727       0.03533208
Ar       6.07829005       8.68612968      13.36923892      -0.06222126      -0.05690122      -0.01381892
Ar       6.61798584      15.65146597       0.83097450      -0.03663934      -0.03598694       0.02666072
Ar      14.21184697      16.24959082      15.32071403       0.00202055       0.04439756      -0.04416950
Ar       3.49100455      15.34785649      15.89103685       0.05123612       0.06446065       0.01414984
Ar      16.87148907      15.91837001      12.66865318       0.05737721       0.04442509      -0.00988884
Ar      10.25040343      16.13197434       0.76171276       0.03147833      -0.07881418       0.01013556
Ar       1.88251947      10.52742410      10.44392931       0.06880959      -0.04359691       0.01284492
Ar       8.85985599      10.97243246      12.67459012       0.04645835      -0.01242091       0.04730024
Ar       5.92158846       1.18219194      10.68329401       0.00270667      -0.08656492      -0.03020057
Ar       6.77686662      13.09978332       6.55057972       0.09092263       0.05966736       0.02725055
Ar      10.11696583      14.43232935      11.29784946       0.04798272      -0.01743140      -0.05042224
Ar      14.95860886       5.88710554      14.56317244       0.04256820      -0.00323376       0.09515975
