108
Lattice="17.35 0.0 0.0 0.0 17.35 0.0 0.0 0.0 17.35" Properties=species:S:1:pos:R:3:momenta:R:3 pbc="T T T"
Ar       7.52401183       3.12873762       7.17784315       0.03718707       0.08619811      -0.01055210
Ar       8.12795997       7.82467507      11.36915570      -0.05275957      -0.04650319       0.09128663
Ar      11.49290855       3.21340938       4.89867736      -0.10528767      -0.04844841       0.04668031
Ar       0.12051735       7.57135541       6.59200687      -0.07757809      -0.03656993      -0.06267598
Ar       8.63141020       4.44640201      10.92970146      -0.00486777       0.02148402      -0.01770046
Ar       4.48830811      14.22518165       3.09750351      -0.02705398       0.08986136       0.04640539
Ar      15.20536261       4.33583911       3.80009514      -0.00984505      -0.01928331       0.08355501
Ar      15.14825669       4.76985983       7.45639543      -0.04122477      -0.01516899      -0.03415208
Ar      10.09449363      17.25790916       4.08955272       0.07935596      -0.03112709       0.02630446
Ar      15.58096249       6.00933187       0.42581481       0.00827223       0.01460317       0.02371120
Ar      12.49463739       9.18667749       7.31937282       0.02715937       0.04858728      -0.05821977
Ar       2.95720425       3.55337509       8.97246430       0.04041490      -0.07379275      -0.05419144
Ar      12.23060950       5.40208649       1.71818044       0.02153383      -0.02657295       0.08132733
Ar       9.74717909       7.06585115       8.33948636       0.02563730      -0.00603550      -0.01423009
Ar       8.28273333       2.84972823       2.59402924      -0.07713951      -0.03463129      -0.04065959
Ar       0.75758198       3.68729742       5.72933631      -0.02292843       0.02542927      -0.02419243
Ar      10.35605159      12.46412378       5.43144415      -0.01622069      -0.06482496       0.00955595
Ar      12.72287764       1.42328695       1.77984678      -0.04397549       0.01097233      -0.03535297
Ar       5.66475532       5.98276741       7.88911985       0.00686850      -0.01273329       0.01575766
Ar       1.29209877       6.48914840       3.19733820       0.05843726      -0.01316767       0.01220202
Ar      14.25707049       7.86460266       3.69347711      -0.10339744      -0.04429116       0.01976363
Ar      13.18497096      15.36497994      11.87734533       0.04084574      -0.03324999       0.03184099
Ar       3.96965020       3.41710803       4.53531980      -0.03669184      -0.05754319       0.15768361
Ar       4.29667604       7.28315505       4.53621705       0.04253771       0.04164779       0.07702516
Ar       0.83746267       3.20968718       1.90416886      -0.05312362       0.05270716       0.07727009
Ar       6.86965030       0.98744204      16.99985860       0.10970543       0.02936762      -0.07720257
Ar       3.82347269       2.13994014      15.36097194      -0.05553601       0.03559488       0.01158743
Ar      10.48964617       0.09183295      14.11773956       0.10385962      -0.03852026      -0.01822001
Ar       0.00567399       1.05482262      15.32043687      -0.00265216      -0.09568493      -0.01508818
Ar      14.24465448       1.08352576       5.03639586      -0.01413601      -0.02141729      -0.05250871
Ar       7.05686516       6.23403817       0.07745189      -0.06624480       0.06628052       0.00418458
Ar      11.84563131       3.49584652       8.60371579       0.02584530       0.10655561       0.00855184
Ar       5.56324903       9.87616575      10.13739881       0.06847951      -0.07751663      -0.03013785
Ar       7.16321885       4.18981380      14.47682565      -0.00981958      -0.00850839       0.03821222
Ar       2.78223295      17.25604337      12.17645752       0.04409801      -0.03571613       0.01692267
Ar       1.37043456       7.43915716      12.89104406       0.00019197      -0.06108321      -0.04327537
Ar       0.65652201       4.90854236      15.47841097      -0.13943951       0.01867481      -0.03825512
Ar       3.33502096      17.27520153       1.79511277       0.05618052      -0.01884617      -0.10042602
Ar       5.11306542       6.19822077      11.45274957      -0.02462524      -0.07292429      -0.01778452
Ar      10.56420571       0.77472989      10.28044284      -0.03535188      -0.06116560      -0.05408388
Ar       2.14246693       7.39346666       9.64730992       0.13908103       0.00111671       0.10056417
Ar      11.56052284       6.86602560      11.38376664       0.07497820       0.03965541       0.01036664
Ar      14.80488720       1.58392463      12.52078791      -0.04946549       0.05570240       0.00547624
Ar       7.22266397       5.45032707       4.57289972       0.05506979      -0.02517649      -0.01230232
Ar       4.14838817       4.45144977       1.02439016       0.03114363      -0.05627510       0.04519339
Ar      15.14905305       8.09600188      11.13560236       0.02521096       0.03128279       0.03027888
Ar       3.62020775       9.83886881      14.64868461      -0.10087074       0.07792616       0.07638076
Ar       2.80631757       3.49483863      12.47632020       0.00855976      -0.05757657      -0.05327395
Ar      10.52227201      10.24325374      14.99194885      -0.01374737       0.05066243      -0.02331626
Ar      17.15110786       4.58170834      10.51959401       0.02710887       0.04519861      -0.03408129
Ar      10.24743773       6.19804223      15.24457258      -0.03519442      -0.06565010       0.04572582
Ar      11.66746275       3.47333436      13.07198761       0.05194804      -0.04624186       0.07430155
Ar      16.47361363      10.88760253       1.08495090       0.03370270      -0.01500776      -0.06574683
Ar       6.90343078      16.02914060       8.78675495       0.10178930      -0.08187726      -0.01701291
Ar      16.00274577      10.97830399       7.32911927       0.05110696      -0.03460529       0.01899125
Ar      17.21387701      14.23029791       9.44218069       0.00371361       0.10416563       0.02534889
Ar       3.97901628       8.28055651       0.98076378       0.09146696      -0.01605127      -0.02028078
Ar      10.46282066      11.35262383       2.22825926      -0.07076797       0.00034081      -0.03476449
Ar      13.22491263      12.33413984       0.29106228       0.04089653       0.05392057      -0.05311345
Ar       7.48350679       8.85539340       5.56023623      -0.06950214      -0.04697935       0.01813125
Ar      16.83048142      17.19301967       1.91345737      -0.15624664       0.09052475      -0.00148859
Ar       8.11301702      14.15820265       2.99488901      -0.01646994      -0.07113445       0.04943762
Ar      10.35704292       2.68334961      16.59165273       0.05215883       0.03670580       0.05443540
Ar      13.27517449       8.84680171       0.54642128      -0.02518630       0.04785415       0.04998422
Ar       3.58816399       9.87104535       6.99746321       0.04146297       0.01199229       0.05016702
Ar      15.92216975      14.02207498       5.80287440      -0.06260500       0.12114413       0.04203505
Ar       2.90632314      12.09185183      17.12209405      -0.02814466      -0.01937322       0.07800130
Ar      13.98499958      11.94721539       3.94847031       0.09425940      -0.00978226       0.06002039
Ar       0.61897005      17.09223298       6.02034479      -0.06784903       0.03933765      -0.03173708
Ar       9.19273411      13.57806716      16.66368065      -0.01929476       0.01373537      -0.05580499
Ar       6.35454229       0.12521544       4.39020373      -0.11734545       0.02839762       0.05962171
Ar      10.46245455      15.39839183       7.67648503       0.05632306      -0.05368620      -0.04041155
Ar      17.01284369      13.89318759      16.16289816      -0.01936708       0.01177216       0.02430244
Ar      17.25382245       0.94512739       9.79078072      -0.09738004       0.07859903      -0.13482264
Ar       6.18197873      11.03981639       3.29506883      -0.01786556      -0.07629484      -0.06610416
Ar       9.47618365      11.04016095       8.70673740       0.08439695      -0.04613488       0.03583302
Ar      12.78483220      13.24846882      14.50184797      -0.05685267       0.08362205      -0.05830972
Ar      14.06675539       3.26145378      16.22022415       0.00062507      -0.08759250       0.03267870
Ar       9.53402955       7.62869834       2.47227442      -0.03518723      -0.00423705       0.03496317
Ar      12.96328188      15.38146522       2.86233615       0.01024849      -0.00036977       0.10309629
Ar       0.74883664      13.79827039       2.45299112       0.01992203      -0.00790207       0.11804350
Ar       4.00495965      16.27444787       6.52730150      -0.04261582      -0.02714297      -0.06811084
Ar       6.95362296      16.46884452      14.07907862      -0.07823449      -0.00999780      -0.05789022
Ar       0.50147812       8.58891309      16.16535398       0.05881661      -0.06971166      -0.03836855
Ar       5.94064755      13.92576989      11.60896860       0.04395562       0.01925323       0.03802516
Ar       1.93270197      10.44716438       3.70206899       0.06079625      -0.04197247      -0.04382338
Ar      12.07784636      11.31658030      11.50906966      -0.02892579       0.02818901      -0.06019033
Ar      16.27874167      11.16027427      12.80490755      -0.01238491       0.02797474       0.01407646
Ar      13.66397859      13.28538169       8.73030998       0.09786682       0.03457759      -0.00648238
Ar       5.85346969      12.48371877      14.77353840       0.02697838      -0.00205929       0.10482003
Ar       4.19194667       5.95063462      15.23279835       0.03475999       0.08210072      -0.07209241
Ar       7.77885236      10.51154922       0.31098430      -0.03770634      -0.00543515      -0.00841974
Ar      13.77909780       9.27953446      14.31831968       0.02565215       0.10046871       0.02904449
Ar       2.67051326      12.71114816      13.04132599      -0.04356859       0.05440174       0.04168511
Ar       3.47976950      13.64832649       8.82616484       0.01798957       0.06501565      -0.01454080
Ar      14.41568210      16.78810528       8.36829222      -0.07627268      -0.05945151      -0.09244583
Ar       6.83601902       8.43370779      14.91661622      -0.07398940      -0.03349540      -0.13368635
Ar       5.92706664      14.71665147      17.13259344       0.05820224      -0.02705020       0.05805568
Ar      13.78031214      16.73864625      15.67624143       0.05352410       0.01132773      -0.04195354
Ar       2.89479158      15.47072460      15.61671272       0.01531793      -0.08672856      -0.00450577
Ar      16.61178642      15.42678609      12.70089951       0.06272350      -0.04555046      -0.05181694
Ar      10.27949647      16.69045758       0.48757270      -0.00878601       0.00587894      -0.01052436
Ar       1.32475378      11.22922863       9.96805427       0.01500007       0.03077183      -0.02609644
Ar       8.29282041      11.19394754      12.57637962       0.02474119       0.01695521      -0.00562344
Ar       5.91152225       1.81383939      11.16665498       0.01100859       0.02711095      -0.03503565
Ar       6.35790041      13.40817986       6.46202878      -0.02707798       0.03495098      -0.08148335
Ar       9.57448467      14.72555962      11.62131954      -0.04966178       0.04248871      -0.06371939
Ar      14.62754436       5.88528104      13.74967143       0.05934909       0.03278410       0.00937606
