108
Lattice="17.35 0.0 0.0 0.0 17.35 0.0 0.0 0.0 17.35" Properties=species:S:1:pos:R:3:momenta:R:3 pbc="T T T"
Ar       8.48777880      14.74412954       3.84912957      -0.09070424      -0.01289115      -0.02462196
Ar      10.59288951      10.68744445      11.45951897      -0.04756703       0.01896448       0.03635357
Ar      13.02737300       3.16153724       3.52202031      -0.10398026      -0.05511901       0.00493310
Ar       0.30366239       6.45903540       4.14812558       0.07932572      -0.01402816      -0.02353098
Ar       5.43271821       3.37907253      11.12316869      -0.06417318      -0.00054428       0.03405620
Ar       4.86856458      14.78152703       3.44186135       0.05535782      -0.00753060       0.07862223
Ar      13.63994906       6.14972534       7.08470121      -0.07293073       0.05562601      -0.01469410
Ar      10.33477504       8.73994116       7.31226676      -0.00610804       0.00286686       0.03297344
Ar       8.93931431      14.68915290      11.55704899       0.01674696      -0.03226279       0.02980509
Ar      14.90547254       4.00950068       0.08962765       0.14783506       0.04556567       0.01794003
Ar       0.71359812       8.04271931      11.85488571      -0.08936452       0.02459890      -0.03656143
Ar       2.02189031       0.88798276       8.71481774      -0.03334501      -0.08460063      -0.00120099
Ar      10.87034708       3.70626509      16.54559858       0.01410428       0.04196878       0.11859175
Ar      10.34421257      12.63277049      14.38103780       0.09095110      -0.11583551       0.00911010
Ar       3.40553734      16.36967944      16.82086010       0.03779907      -0.07529285      -0.05164970
Ar       3.80680956       3.80242253       6.88444902       0.02330540       0.02004927      -0.04885400
Ar      14.19245499       9.28378011       5.31306391       0.03215932      -0.09523812      -0.05294572
Ar       8.87970851      12.73534633       0.16169715       0.01355275       0.03960380      -0.03006285
Ar       9.77382492       0.78071359       5.73509623      -0.01910403      -0.03609833      -0.00883426
Ar       2.11557204       8.03156264       1.91217301       0.00402623      -0.02273538      -0.17208878
Ar      14.27082933       6.47907143       3.02420287      -0.00938701       0.03332744       0.07772498
Ar      16.02124647       1.60233870      10.24739565       0.06100395       0.01323152       0.01381523
Ar       7.27360677       3.55189516       5.70920127      -0.00947359       0.01874996       0.05762944
Ar       5.20438413       6.19196318       0.07303337      -0.11105148       0.06061247       0.02003190
Ar      16.98569736       3.24915698       2.89218145      -0.01547815      -0.00250101       0.03614908
Ar       6.75262619       3.01053296      17.01107542       0.04075060       0.06884512       0.01417655
Ar       4.01577264       4.18297943      14.81307411      -0.01362273       0.05581283      -0.00814150
Ar      10.18337627      15.65010232       8.14670462      -0.02538904       0.04615531      -0.00433065
Ar       4.26881273      10.59235453      14.54577413      -0.04400713      -0.04135759       0.00872797
Ar      15.39605623      13.49456297       4.00065879       0.02954295       0.07423362       0.07146678
Ar       9.38192587       3.37162334       2.97877194       0.09052581      -0.02296154       0.04928615
Ar       9.93125504       3.99257306       8.66883237      -0.03300784      -0.06929631       0.06634380
Ar       3.97342653      11.34455445       6.18108188      -0.05541319      -0.08944541       0.02282738
Ar       6.54403509      11.09155373      11.76857505       0.02198715       0.06563680      -0.06805624
Ar       1.86429513      17.05286031      12.20929085      -0.02512477       0.04650803      -0.05955428
Ar      15.13590573       6.53276747      14.23437065       0.05399467       0.04768714       0.02523860
Ar       1.84748918       7.55594387      15.42435515      -0.01593760      -0.00974414       0.03459384
Ar       2.21644497       1.19744717       4.47259431       0.00169253      -0.05130736      -0.06249797
Ar       2.20947748       4.26263242      11.44225253      -0.01233301      -0.11961495       0.03871056
Ar      14.21347550      16.05527201       8.82051764       0.06393694       0.12323865      -0.06205778
Ar       5.82374326       6.50399736       8.67200274      -0.01267966       0.09903046       0.01874204
Ar      13.54099690       9.65314602      14.32629681       0.08637389      -0.00122694      -0.13590055
Ar      16.05604022       5.01366875      10.75809024      -0.02790005      -0.04113235      -0.02867613
Ar       3.72162642       4.35756862       3.27630303      -0.07453498      -0.00633144       0.04323639
Ar       1.61972152       4.23938117       0.24805523      -0.09496263       0.01125205      -0.10398375
Ar       0.30106500      10.62193684      14.89691423      -0.05005882      -0.05778553      -0.07784779
Ar       3.73547021      14.13299272      13.62069143       0.07203687      -0.02267423       0.02552906
Ar      16.44854377      16.89547722       6.05751161       0.07612486       0.12404809      -0.04472218
Ar      11.43259494      16.82114719      13.18060918      -0.00681892      -0.04286595      -0.03354806
Ar       2.26378027       7.17554862       8.79805382      -0.01099107       0.10949169       0.05571495
Ar      10.68360787       6.83181250      13.90696526       0.05106003       0.00533858       0.03453074
Ar       8.85554727       7.32483769      10.80660251      -0.00982425       0.00475464       0.00400496
Ar      13.07842654      14.68757009       0.15188966      -0.05239887      -0.05042169       0.07577128
Ar       5.52192286      15.54371995      10.66439112       0.04661102       0.00761516       0.04603456
Ar       0.46301849      12.56847116       7.12135078       0.02252577      -0.03037770      -0.01256441
Ar      12.79612379      16.40831573       5.49257492       0.07242719      -0.00604587       0.09005864
Ar       2.12301751      12.33538743       0.90121301      -0.06091114       0.01796732      -0.00788200
Ar      11.17155788       8.33534422       2.87685422       0.05184938      -0.05051916       0.05065776
Ar      12.71419956       6.88464238      17.17729661      -0.04269472       0.07200811       0.07252800
Ar       7.06683554      10.15931522       8.31409582      -0.01420031       0.04043428       0.00438578
Ar      16.78095858      14.44393792      17.06378580       0.00754512       0.07461375       0.07764348
Ar      10.57727849      12.29586383       8.37421567       0.00575769      -0.01840709       0.00718016
Ar       9.82509362       0.77560128       1.03568057       0.01255493      -0.07709854      -0.08057121
Ar      10.57651316       5.57958528       5.39531525       0.06538364      -0.00037223       0.02485581
Ar       3.60410957       7.81890052       5.60805563       0.07509492      -0.06003727       0.04706308
Ar       1.11524059      15.21398656       3.22738686      -0.02619920      -0.00176915      -0.01267684
Ar       5.39499568      13.56496440       0.31724166      -0.01077941       0.07479804       0.01176753
Ar      12.27026641       5.88441985      10.65259800      -0.03435012       0.03591732      -0.00252019
Ar      15.40933033      16.82508426       2.29600096      -0.03532120      -0.03761703      -0.01089131
Ar       5.31488135       0.36978638      13.77634438      -0.07728704       0.01639783      -0.00992521
Ar       5.66332261       0.83869382       7.59577149      -0.00847782       0.00672135      -0.03806149
Ar      17.06351382       8.59943906       7.27969802       0.01199213       0.03665000       0.04205316
Ar      14.37011653      10.21409978       1.14829222       0.01277749      -0.02720419       0.02346836
Ar      16.65950796       3.65454783       7.40742653      -0.10462694      -0.05980791      -0.05009911
Ar       8.19965021      11.09127303       4.94844130      -0.02142117       0.01760005      -0.00177915
Ar      13.99058441       8.88830539      10.36615593      -0.01067407       0.08395286      -0.02634168
Ar      12.85260733       3.18684478      13.75613829      -0.03604590       0.03132648      -0.04202621
Ar      13.32222943       0.85735682      17.28619228      -0.07442791       0.04551863       0.02442830
Ar       7.43363557       6.74455502       3.91422200       0.02871690       0.02990022       0.00829553
Ar      11.30556139      11.95841912       3.62399066      -0.00821135       0.05380428      -0.00601204
Ar       0.72139901      10.89214820       3.88738220       0.08598564      -0.06359173       0.02565860
Ar       3.45906155      15.00583589       7.40369223      -0.04055647      -0.05433229      -0.00479412
Ar       8.86784575       2.19857388      13.85960971       0.00688777       0.02908509       0.04797980
Ar      16.52652614       7.61880854       0.32498277       0.05806370      -0.09045301      -0.04620828
Ar       0.19078536      15.26369896       9.49055427       0.03016864      -0.01627744       0.03588561
Ar       4.92374431      11.07769616       2.92778765       0.00750225      -0.12288660      -0.01342974
Ar      13.78866799      14.07638957      14.21552786       0.05439260      -0.06887598      -0.00088199
Ar      14.94309928       0.32181307      13.66189364      -0.03137640       0.04514878      -0.08583034
Ar      13.11749515      13.03070928      10.99538189      -0.04791993      -0.02090112       0.00651491
Ar       7.81809039       9.82167700       1.20139357       0.04971553      -0.05102758      -0.05196267
Ar       7.22722546       5.02155891      14.20643443       0.06110829       0.00923317       0.01516078
Ar       9.25719327       6.65393608      17.18041007      -0.05626222      -0.02507726      -0.03944694
Ar      17.24364846      14.47039273      13.24210849       0.00673301       0.01311380       0.00729055
Ar       6.93149593      13.66466650      14.45918900      -0.06950131       0.07080667      -0.07822957
Ar      16.51543422      11.20113242      10.41929836      -0.01364013      -0.02384844       0.00866318
Ar      12.60383365       2.44744993       7.07493921       0.03158280       0.05661228       0.01477878
Ar       4.39783929       7.13387624      12.50793011      -0.04156316      -0.05121523       0.05717513
Ar       6.06280514       1.01323008       3.31368004       0.03002884       0.04900015       0.02193745
Ar      11.03610614       9.93719941      16.66872835       0.01124270       0.02349474       0.06489601
Ar       0.29742200       0.45235164      16.05133946      -0.07353918       0.02286138      -0.11537149
Ar      17.15458953       3.28348093      13.51048325      -0.07977782      -0.01838383      -0.07343289
Ar       7.17993928      16.42712863      16.86686046      -0.07702104       0.05512533      -0.03825213
Ar       2.66559944      11.02706573      11.07942389       0.10101936       0.04473411       0.02710991
Ar       7.57707586       9.14574524      14.90677767      -0.03066523      -0.09129075       0.07670976
Ar       8.95284368       0.93333517      10.46216125       0.08141930       0.02166745       0.00555777
Ar       6.93643182      13.87892212       7.26216713       0.01239227       0.04608861      -0.00660759
Ar      13.78360622      13.03899078       7.18451711       0.09784599      -0.05782559       0.01245019
Ar      12.38281689       1.54446697      10.44605799       0.06160421      -0.08330917      -0.10466550
