108
Lattice="17.35 0.0 0.0 0.0 17.35 0.0 0.0 0.0 17.35" Properties=species:S:1:pos:R:3:momenta:R:3 pbc="T T T"
Ar       9.10307298      11.38989617       4.50348961       0.06741734       0.06086383      -0.03469741
Ar       7.46680473       6.98519228      10.23129641       0.03551098       0.06294405       0.00140965
Ar      12.35636532       2.66579315       4.86567087       0.05586351       0.12214749      -0.04230286
Ar      16.03299260       7.21944289       1.67615042       0.03842156      -0.03886717      -0.13950662
Ar       5.58951020       8.30613661       7.48092924       0.04616466      -0.02472169      -0.05474507
Ar       5.29828004      13.32448893       3.86874453       0.01013400      -0.00050988      -0.00861874
Ar      14.65132924       4.76913649       6.89456069      -0.03710242      -0.03169596       0.04007901
Ar       9.23930546       8.20656077       6.16866563       0.08263474      -0.03723060       0.00187846
Ar      10.07546504      14.68883258      10.48732632      -0.01660011      -0.07732861      -0.01076711
Ar      14.34062757       2.02533957      16.93079930      -0.03925725       0.02732573       0.01266271
Ar       0.38356807       6.64179792      10.83404162       0.03998495       0.00652509       0.01407469
Ar       2.66738403       5.54582952       8.52108301       0.00465078      -0.00819723      -0.02330429
Ar      11.40350427       2.27408199       1.40969369       0.08493473      -0.03565429       0.03255199
Ar      12.92206474      14.91644685       0.12072292       0.00184943      -0.05913273      -0.06499818
Ar       1.88780599      10.20572426       2.46975292       0.06506172      -0.08730698       0.10415952
Ar       3.87284530       6.83797368       4.37730533       0.01811460      -0.01004837       0.00536810
Ar      12.81445442      10.77852848       6.58570789      -0.01597006       0.03121424       0.13682961
Ar      12.21125387      14.23118753       4.11693646      -0.03638191       0.01628018      -0.03944649
Ar       6.55490902      16.99577846       9.23549092      -0.03223961       0.03494698      -0.07633108
Ar       5.63091209       7.82748488      16.24764581       0.03957816       0.03019990       0.11218982
Ar      13.18184352       5.52980950       0.54217116      -0.00178038      -0.02882259      -0.07519215
Ar       0.35190756      16.39469975      11.82705237       0.05631624      -0.10175554      -0.18671255
Ar      10.44609572       5.64561225       3.99387319       0.05436784       0.03657608       0.08526735
Ar       6.80974908       6.23409546       1.77695945       0.01467028       0.01928571       0.01242870
Ar      16.96615035       4.30544035      16.79286338      -0.02106955      -0.08734827       0.04415059
Ar       2.76034204      13.73804626       1.20313819      -0.02180296      -0.03463633       0.05994139
Ar       4.38205406       4.81799303      11.76150531      -0.02772655       0.03309508      -0.01468601
Ar      14.17403207      16.24237595      11.07081258      -0.02646895      -0.08649062      -0.00199652
Ar       5.68166381      10.45344835      10.06435632      -0.00850166      -0.06056059       0.02342434
Ar      16.20689840      15.39787453       4.69781420       0.04197126      -0.05523711       0.00116359
Ar       1.95316980       2.28395331       3.33172983       0.00309730      -0.07308300      -0.06653261
Ar       7.50404505       2.66863843       2.73923474      -0.02395048       0.05126528       0.02220482
Ar      15.25782799       8.30031523       5.23081841       0.03802961      -0.10456036       0.01554472
Ar       5.44926089      13.65331123       9.75793270      -0.09765412      -0.10899180      -0.01515034
Ar       3.74176654       0.34536501      16.00641125      -0.09260481       0.04182326       0.02398457
Ar      14.97201789       5.99799051      14.76222785       0.01831631      -0.08064881       0.02884894
Ar       0.17978360       2.03025660      13.91442191      -0.09863431       0.01443930      -0.05929870
Ar       2.64946723      15.94792979       4.21595002       0.01883024       0.07322486      -0.02561218
Ar       5.97944095       2.12360680      13.78696231       0.00499015      -0.03890519      -0.00017147
Ar      16.65753012      16.35855058       8.05379228       0.03599885       0.05536147       0.00530911
Ar       4.34039080      11.70228411       7.02805316       0.08149518      -0.02852269      -0.00680960
Ar      11.49750324       6.99248517      13.32577582       0.05954384       0.03460043      -0.04517757
Ar       0.87466595       6.36006328      14.22112093       0.09441391       0.01020277      -0.02107982
Ar       2.43562952       6.98421967       0.91358930      -0.06990572       0.05788975       0.05593366
Ar       4.59856297       3.27657474       0.80368371       0.06726582      -0.02418981      -0.00764075
Ar       3.25325429       8.38447823      11.83297709      -0.07349491       0.08097191       0.00867561
Ar       5.12909070      13.80752426      15.00029654      -0.05611569       0.00363092      -0.01899212
Ar       2.03148265       1.56294419       6.79339518       0.06855697      -0.01581535       0.01888185
Ar      11.72574951      17.19450864      14.12433672      -0.04112524      -0.01465953      -0.02111913
Ar       2.26393360       1.57263688      10.43115236      -0.03231793       0.01845153      -0.06469724
Ar       8.05091489       6.17541311      13.79043554       0.05273455      -0.01645523       0.01934353
Ar       9.39546296       3.26309833       7.57765799       0.09289670      -0.04485971       0.06820571
Ar      13.77459636       0.00271872       2.99650597       0.08554784      -0.01136628      -0.00827256
Ar       7.43112918       3.62966193      10.77953043      -0.10884520       0.00966330       0.03995604
Ar      16.31841162      11.99169303       7.34950269      -0.02071181      -0.01713606      -0.08277001
Ar       9.84115967      16.76492146       7.10884242       0.05470276      -0.00194469       0.05254551
Ar       5.74983546       9.67531579       4.39221739      -0.04590473       0.03606102       0.05471719
Ar      10.44437218      12.21688549       1.00552519       0.01364886       0.00270188       0.05983734
Ar       9.63873272       5.82273155      17.19186210       0.06445560       0.07101024       0.02544630
Ar       9.42254800      11.02552992       8.61113125       0.03726615      -0.04826538      -0.06128087
Ar       0.40329641       0.52937003       0.16966298      -0.02899330      -0.02810193      -0.05772292
Ar      10.01077892      13.71116192      15.08071482      -0.04894478      -0.00579414       0.02826111
Ar       9.71191272      16.59165686       2.67217319       0.04069548      -0.00539122      -0.01229517
Ar      12.72018925       9.16968151       2.72495892      -0.09750226      -0.02686590       0.04990792
Ar      16.00163755      11.29989050       3.35346727      -0.01112227      -0.08289847       0.00090751
Ar       1.53892614      12.94900677       5.01488935      -0.04582344       0.02173057       0.04183328
Ar       6.32296513      10.81697871       0.46588316      -0.06948123       0.03423274      -0.00018444
Ar      11.24763137       6.80671519       9.19642815       0.05474843       0.03993281       0.05016560
Ar      15.60500297       3.52450381       2.63960468      -0.03409279      -0.01976892       0.04287354
Ar       4.47168982      16.09686565      12.51612941       0.01565758      -0.06879413       0.09714662
Ar       5.15103623       2.67402385       8.32198255      -0.04749299       0.05537204       0.08368553
Ar      14.27276432       5.88810023      11.28311999      -0.01329885      -0.00023765      -0.06404483
Ar      14.48760265      11.49243531       0.06511225      -0.01375572       0.05364756       0.07284433
Ar       0.36968202       5.51674494       4.62533906       0.02615711       0.00546389       0.01150935
Ar       7.16248972       5.21106128       5.47751063      -0.07178767      -0.03156147       0.02403524
Ar      12.19347613      11.86167851      10.88657212       0.03190902       0.04462860      -0.05184086
Ar      11.30581256       3.48154373      14.49083234       0.00282353      -0.01028971       0.02338819
Ar      15.60448753      16.44918721      15.07475998      -0.09032623       0.03386138       0.01141349
Ar       1.56778920       9.46988633       5.75099473      -0.05536868       0.03378235      -0.05673556
Ar      16.37294658      14.62994103       1.20121324       0.02382397      -0.05380104      -0.01760347
Ar      13.23469930      16.17343500       6.83532237       0.02447013       0.04489416      -0.02918121
Ar       2.78050098      15.46292604       8.13624013       0.01645474      -0.11078505      -0.12342995
Ar       7.89572929       2.43807363      16.50739933      -0.02423211      -0.06862878      -0.03558102
Ar       0.56683129      10.66477611      16.60643161      -0.10293106       0.00377629      -0.02361991
Ar       2.42327425      12.06711224      12.94919666       0.02498784       0.02757966      -0.01503345
Ar       6.23058489      17.34616992       5.30692775      -0.05230858       0.11916844       0.00017281
Ar      13.49337950      13.88748727      13.82305919       0.01353170       0.00308290       0.01865045
Ar      15.81016982      12.54831901      11.09201308       0.02080018      -0.06264348       0.04416827
Ar       8.98599472      10.44632401      11.93826369      -0.03792219       0.01844036      -0.01874561
Ar       8.74059149       9.62750462      15.62801753       0.01326751       0.00509188       0.06135490
Ar      10.99981176       4.05982961      11.12153331       0.00644887       0.00599122       0.01216674
Ar       9.25983206       8.66839789       2.02196506       0.08307917       0.06517511       0.04824740
Ar       1.23539741      14.65232512      15.10510044       0.00555751       0.04053000      -0.04529229
Ar       7.29518878      16.54469989      15.18920225       0.05361641       0.04867556       0.01446778
Ar      15.12028208       9.47717832      14.03721765      -0.01222276       0.02432014      -0.07449740
Ar      16.30594439       1.63712221       5.41397766       0.07301823       0.06341241       0.02070849
Ar       5.94821558      10.71723230      13.95007439      -0.00378480      -0.00450377      -0.06174836
Ar       5.69362704      17.12307328       1.69820594      -0.00910357       0.02045210      -0.03252507
Ar      12.36211300       8.46672354      16.46966533      -0.05627861       0.06165316      -0.00941220
Ar      13.71952612       2.05049583      12.47932246      -0.02493672       0.04869382      -0.04519692
Ar      16.52326754       3.20595198       9.93826956       0.01852175       0.06550362       0.08270008
Ar       7.50691450      14.23477867       0.90858781      -0.03557609       0.02895859       0.03589311
Ar       1.71477587      10.14250020       9.32969062      -0.03471629      -0.03316252       0.00454640
Ar       7.34123948      13.61588521      12.51975733       0.02246294      -0.04470365       0.03455807
Ar       9.17081291       0.84814031      12.14479634       0.09451851      -0.00998344       0.07250427
Ar       7.89463552      13.79023611       7.01195898      -0.01870379      -0.01161799      -0.06802732
Ar      14.97690236       8.80820208       9.09740302      -0.01104009       0.05347163      -0.06331714
Ar      12.92916248       1.88273167       8.90193902      -0.21807480       0.06025641       0.00882028
