108
Lattice="17.35 0.0 0.0 0.0 17.35 0.0 0.0 0.0 17.35" Properties=species:S:1:pos:R:3:momenta:R:3 pbc="T T T"
Ar       9.50217155      14.49742160       3.06703566      -0.02969722      -0.11361523      -0.09030486
Ar       7.34439134       9.42962046      10.59771786       0.00771808      -0.02725359      -0.02820825
Ar      12.03621324       2.03083928       3.71484671      -0.08671958       0.00171736       0.04211564
Ar       0.47782760       6.06865782       4.37397305       0.02662863      -0.09037829      -0.07403894
Ar       4.96614719       5.20903593      10.21233960       0.01950940      -0.05207507       0.03541190
Ar       5.87744949      13.71704528       4.08716580       0.07377040      -0.02775098      -0.07629980
Ar      13.07408430       4.72654341       6.39144691      -0.05982218       0.11920582      -0.00203818
Ar      10.14493657      10.40733059       5.08447526      -0.03256982       0.00836906       0.04693885
Ar       9.13954414      15.39209258      10.41173704      -0.06456515       0.03431233      -0.11230454
Ar      13.99981382       2.28655753       0.41122612      -0.00901450      -0.00579207       0.03362348
Ar       1.80339947       7.94354641      11.26702189      -0.07730627      -0.05972585      -0.00924799
Ar       2.27193473       1.42633300       8.30985745       0.00727589      -0.00368448      -0.11369728
Ar       9.93530565       2.62904487       1.04800115      -0.01411924      -0.04037344       0.08767289
Ar      10.59656189      14.10601596      14.91064130      -0.00328435       0.00941793      -0.02453443
Ar       3.55512034      13.35500612      17.21913053      -0.02072835       0.06940701       0.03681184
Ar       2.90632379       5.08366078       6.73686268      -0.02013635       0.11557792      -0.08878820
Ar      13.70736201       8.63562973       6.26234355      -0.08465569       0.03641416       0.08511469
Ar      13.19016320      13.68940090       0.67459426      -0.02886744       0.04083651       0.06517550
Ar       9.76252174       1.15130017       7.58316155      -0.08389668      -0.00877697      -0.07566542
Ar       3.73078621       7.88848142      16.45537398      -0.10240051       0.00357014       0.00840410
Ar      14.52696162       6.39551970       2.75742447      -0.07004190       0.09115668       0.02557169
Ar      15.22214053       1.44585969       9.25298273      -0.03979281      -0.01766574       0.06812716
Ar       6.87324735       5.60134936       3.80030808      -0.03344606      -0.02048090       0.02537785
Ar       6.75498597       5.60489336       0.40383181      -0.00158985      -0.02959868      -0.04430244
Ar       0.55125661       3.13286752       1.23307598      -0.00827205       0.00737367      -0.07910587
Ar       5.15073711      16.29448766       0.84700967      -0.05909480      -0.01369341       0.05425684
Ar       6.78429467       3.62752647      13.27581684      -0.05725856      -0.01136402       0.06991783
Ar      12.38708625      16.81663759      10.06327646       0.07551142       0.03559960      -0.00792094
Ar       4.20643928      10.74907863      12.20971602       0.10683379       0.02682662      -0.14265002
Ar      15.62716339      14.70708318       5.86429416       0.03632774       0.02666994       0.07216287
Ar       5.16713530       2.56527012       2.63023893      -0.02203686      -0.05243893       0.06239830
Ar       8.14590306       4.09868096       7.02938690      -0.05682092       0.04919049      -0.07638789
Ar      17.30725516       8.13586880       7.45685832       0.04789219      -0.06947943      -0.04042556
Ar       5.27989400      13.40943036      10.40875660       0.02616668      -0.01884645       0.11803689
Ar       2.13222053      16.73238539      16.23302362       0.03150500      -0.04040059      -0.00318291
Ar      14.75877781       5.62056306      15.69670642      -0.00241630       0.03798720      -0.05713403
Ar       1.13413474       5.03265683      14.99856113      -0.02601728      -0.02720305       0.06958420
Ar       3.14342037      16.87850222       4.43213115      -0.02697269       0.01703542      -0.04752886
Ar       1.05123841       1.66209253      11.87875596      -0.05546388       0.00563508       0.04481722
Ar      15.96569975      15.34967667       9.10595842       0.01034546      -0.04618126      -0.00486061
Ar       4.81820924       8.66473563       8.35318421      -0.07958795       0.03353076       0.01707024
Ar      11.68975660       5.77611505      12.24027467      -0.06236915       0.02293330       0.00591546
Ar      16.20689071       7.21323770      12.84128070      -0.01868964       0.00632457      -0.00496257
Ar       3.65240516       6.82371994       2.48177617      -0.01716418       0.02036630       0.06048807
Ar       3.60199388       3.37649017      16.61721505       0.00486594       0.04240571       0.05437349
Ar       0.88950503      10.35228260      13.72119289       0.01332159      -0.00596680      -0.04395489
Ar       4.05072359      14.19558337      13.80489588       0.06134422      -0.01371400      -0.11095843
Ar      17.12807590       0.18946073       6.03060853      -0.04271733       0.04501587       0.02720549
Ar      12.40265918      16.90179050      13.56757976       0.09926050       0.01906063      -0.00482533
Ar       0.40760347       4.94704878       9.74824946       0.02628953       0.01837485       0.09934833
Ar       8.96417576       5.59872618      14.52094839      -0.01792280      -0.01932103       0.06643825
Ar       8.16366355       8.12083848       6.81175791       0.04003713       0.01654840      -0.05769060
Ar      13.91208689      16.48367578       2.86798444       0.00234770      -0.03689531      -0.01723025
Ar       6.77652855       0.75367255       9.84535308      -0.05410916       0.04469386      -0.01237970
Ar       1.71855987      14.00585351       7.34837126       0.06367487      -0.04992119       0.14265543
Ar      11.61926830      14.28021847       6.65427661       0.08396633       0.05579933       0.04725767
Ar       1.15769929      10.36198259       0.07477378       0.04241366       0.00423742       0.00074684
Ar      12.49900268       9.23923339       2.65862355       0.00051442       0.01398988       0.06638150
Ar      11.36399751       5.94708390       0.18161992      -0.00907932       0.00209786      -0.08385551
Ar       9.11882864      12.07436187       8.80954241       0.02721134      -0.03781185       0.02243079
Ar       0.10422365      16.95766583       1.95742421      -0.01606230       0.11284621      -0.07746552
Ar      12.77590197      13.34806661      10.06324556      -0.00262070       0.08035892      -0.01261765
Ar      10.47281833      16.71472133       0.11396737       0.10224907       0.00270721       0.02292090
Ar      10.65153635       5.43343998       3.95817484       0.04009275       0.06385549       0.04496329
Ar      16.47373816       9.54877128       3.82108802       0.06566972      -0.07670504      -0.01255093
Ar       2.37048508      13.18775609       3.80496866       0.01304655      -0.02123683      -0.00406884
Ar       5.08525520      10.85275877       1.55027722       0.01860801      -0.05914294       0.00069906
Ar      11.02967081       8.93669874       9.15892557      -0.01362441      -0.05538285      -0.07686329
Ar      15.40077031       2.19561397       3.83652357      -0.01308703       0.00126800      -0.06686342
Ar       4.33105943       0.46472278      12.84030985      -0.10111384      -0.05510420      -0.03081493
Ar       5.69665299       1.59184168       6.31434489       0.02671189      -0.05364700      -0.00890489
Ar      14.42382204       5.97612234       9.72504777      -0.04558851       0.00020018       0.04815280
Ar      14.99532793      10.19496367       0.73406698       0.02726388       0.02005182      -0.01487218
Ar      16.46221534       3.77526670       6.86792504       0.12511312       0.01012295       0.05755777
Ar       6.37410246      10.43478819       4.91076268      -0.06470484      -0.10444311      -0.03765117
Ar      14.99942395      10.32221607      11.12713892       0.03440658      -0.09555564      -0.09932846
Ar      11.49235593       3.33856138      15.23874300       0.09320429      -0.00107716      -0.01833035
Ar      14.62946525      15.95956069      15.86593657       0.06308932      -0.03714104      -0.02997292
Ar       2.74432533       9.70293779       5.20554515      -0.05809997      -0.02006464       0.04573460
Ar      16.57684201      13.33242218       2.14640078      -0.05373962       0.02182131       0.00100773
Ar      13.65673400      12.19233022       4.21056588      -0.06461142       0.02443162       0.00848443
Ar       4.62741204      16.05862556       8.10096432      -0.04004839       0.00832504       0.01497032
Ar       7.23324031       1.68075720      16.34449606       0.01829217       0.03296856      -0.00868795
Ar      17.22803905       7.07766557       0.44203392       0.04523366      -0.00852411      -0.04963102
Ar       1.96563204      15.66243360      11.01857109       0.04621270       0.07079019       0.04676053
Ar       4.64945311      12.26626210       7.39079620      -0.00691430      -0.01324934      -0.07065951
Ar      14.33686152      12.54421742      14.73622494      -0.00219239       0.02213886      -0.07653803
Ar      15.65123385      16.75498419      12.40109739       0.03567331       0.00936567       0.04124334
Ar      11.16895834      10.73546488      12.42623956       0.05343685       0.03508146      -0.01567789
Ar      11.24695185      10.83510389      16.42932872       0.02778379       0.02977987      -0.02084361
Ar       8.54750895       5.62372238      10.55399593      -0.02940984       0.03960043      -0.02913369
Ar       8.59451646       8.25439055       1.83116074      -0.04497305       0.01868297      -0.00740587
Ar       0.25943796      13.74041556      15.54433431      -0.07413007       0.04083932       0.05938827
Ar       7.37679262      16.21820185      13.53252160       0.05976328       0.05063662       0.13137842
Ar      16.93184944      13.20638585      12.17153298       0.04992373      -0.11616488       0.03539013
Ar      13.43118118      17.31532646       6.57228026       0.05399237       0.02768732       0.18201869
Ar       5.81110808       7.06390453      12.99795914       0.00702557       0.00417714      -0.12172086
Ar       8.37940432       0.47024084       3.53923255       0.01104284      -0.01311256      -0.03597555
Ar      13.27060720       8.48888632      14.31474041      -0.03820959      -0.00431667       0.07630293
Ar      17.01041791       1.92288383      15.12479332      -0.00656482      -0.08552356      -0.01746408
Ar      15.15601289       3.42474383      12.68522211       0.02364982       0.05753762      -0.02927795
Ar       7.03179034      13.51739709      16.53982830       0.02090430      -0.08555879      -0.06320670
Ar       1.48856527      10.88242870       9.52295197      -0.03874033       0.05832676      -0.01071051
Ar       7.93593393      12.38013733      13.01110722       0.03990226      -0.02259351       0.01198602
Ar       9.65160474       1.81253041      12.63865117      -0.01888062      -0.03499606       0.07578245
Ar       7.78385097      15.42983210       6.24796232       0.03462847      -0.00140410       0.04311467
Ar      15.67554035      11.79622873       8.11100175       0.05558646       0.01244572       0.01388991
Ar      11.88213438       3.00421766       9.74953464       0.08472420      -0.03237626      -0.04185551
