108
Lattice="17.35 0.0 0.0 0.0 17.35 0.0 0.0 0.0 17.35" Properties=species:S:1:pos:R:3:momenta:R:3 pbc="T T T"
Ar       7.59402076       1.51998025       6.19157222      -0.00637862      -0.02420547      -0.12007571
Ar       7.73461979       5.16631750       6.98425791      -0.05377380       0.02003812      -0.10812071
Ar       9.11628565       7.12329436       3.66958111      -0.05857458       0.08852956      -0.00669696
Ar      14.11569068       9.24205936       6.85610716      -0.11321330      -0.00688483       0.03087779
Ar       5.66916473       1.75234880       9.37899009       0.12849848       0.01266123      -0.06217578
Ar       4.73357581       1.62573531       3.17226362       0.05722115       0.08980728       0.01221744
Ar      15.21581542       3.88438414       5.21119976      -0.02598040      -0.01347110      -0.02030277
Ar      14.14283927       5.29924365       8.22669356      -0.05020991      -0.04709557      -0.02542740
Ar      10.97604484       3.99055498       5.79300578      -0.00713136       0.00173934       0.08773809
Ar      17.12542114       1.87351630       0.58844144       0.04313862       0.06196242       0.03967795
Ar      10.75721516       7.35597450       7.31040940       0.10965712      -0.06496505      -0.02034976
Ar       3.22220247       3.82919871       7.06754031      -0.02772255      -0.06401496      -0.06277305
Ar      15.10564851       5.39653692       1.07676221       0.03714557       0.01668071      -0.05027164
Ar       5.23663977       5.54733594       4.47385425      -0.01069856      -0.06602405      -0.05443650
Ar       8.05969443       3.61992076       3.27550299       0.06004615      -0.07000006      -0.06628419
Ar       0.56024300       0.83807912       4.61953494       0.01387725      -0.01417604       0.01281860
Ar       7.03203431      16.54508167       3.66460373      -0.01328423      -0.05801221      -0.12330929
Ar      12.40529799       3.60399844       2.71878354       0.03104048       0.02408893      -0.01163216
Ar       4.04974068       7.00820751       7.70495655      -0.00268918      -0.00545276       0.03671309
Ar       2.31010716       7.33674472       0.13899054       0.03324735       0.12335883       0.03460581
Ar      13.13307477       6.86949195       3.98408293       0.08147447      -0.05917894      -0.03882552
Ar      13.98320670       0.04868591       9.83588638      -0.01781358       0.00184022      -0.00263077
Ar       2.55252954       3.85223426       1.70242768       0.00369080       0.03941792      -0.10133129
Ar       1.56817370       6.32803394       4.14868437      -0.00222786       0.04121267      -0.05637658
Ar      14.68775423       0.29341009       2.89425352      -0.05400436       0.07587541      -0.02118368
Ar       5.67376624       3.60709266      17.33505161      -0.00718993       0.03226021       0.05596135
Ar       4.70090717       2.04828971      13.87220274      -0.03230821       0.01169569      -0.07187007
Ar      10.20008468       1.67589702      14.17508318      -0.07216020       0.05535486      -0.04161812
Ar      15.75023594      16.70475360      15.87300098      -0.00286750       0.01668099       0.06217519
Ar      17.30667330       2.43034472       8.26176236      -0.06462990      -0.01777482       0.04991892
Ar      11.52599502       4.29965066      16.34074785       0.00286702       0.02553211      -0.02361236
Ar      11.04232171       2.71232568       9.04293057       0.06056622       0.00594568       0.07025919
Ar       7.20146175       8.29476549       8.47972903      -0.01108603       0.01516406       0.06383660
Ar       8.20049459       4.83824653      14.43825971       0.04026963       0.03257221      -0.00076777
Ar       1.79268041      16.98097261      14.41345438      -0.03783165       0.02382942       0.08254773
Ar       1.36303020       6.91703024      10.97816187       0.02370395       0.00922557      -0.10323039
Ar       0.15167945       6.88753367      15.03210322       0.10624183      -0.01511795      -0.06424210
Ar       1.80548516       3.05918177      15.32100924       0.01393772      -0.08620532      -0.15289653
Ar       7.76526713       5.36210647      11.17820231      -0.03308924      -0.00653129      -0.05893803
Ar       7.95492642       0.32879532      11.40951881      -0.05701710       0.01508680       0.00275657
Ar       0.13659719       7.36989276       7.34541442      -0.06307964       0.01412920      -0.05450336
Ar      11.15605528       6.16711440      11.04769846      -0.04340920      -0.06383286      -0.02658595
Ar      16.92541020       4.01745131      12.38523888      -0.02522136       0.00318046      -0.02788340
Ar       8.30016087       7.45121166      17.09793343       0.07885364       0.02521866      -0.03763445
Ar       3.94378023       6.14819519      14.81912246       0.02944425       0.07934342       0.06320971
Ar      14.86699852       6.71636191      11.57564884      -0.07800808       0.01199315      -0.02478573
Ar       5.03374831       9.97776332      15.07769335       0.05994338       0.00218097       0.13032722
Ar       4.04588961       4.39618213      10.81744108      -0.00750344      -0.05446163       0.01588915
Ar      13.69347430       7.36549797      15.08087387      -0.05278802      -0.03267862      -0.01159747
Ar       2.17029280       0.93922542      10.71412437       0.02276156      -0.10171033       0.01659348
Ar      15.03757034       2.76958490      15.48460252       0.00300928       0.02908609      -0.09742332
Ar      13.32980078       3.21440317      12.08546253      -0.07369380      -0.04977959       0.03373193
Ar      13.48237444       0.68337655       6.03988260      -0.02071811       0.10628101       0.09552948
Ar       5.30547163      11.44625384       9.20236235      -0.03333277       0.08340287       0.08592734
Ar       1.26254185      12.05293738       3.45355997       0.02178538      -0.12342909      -0.01882056
Ar      16.77116536      12.01449114       6.82778491      -0.02289092       0.01168080       0.07724410
Ar       5.47211481       9.02464954       1.28607423      -0.01617435      -0.04317411       0.03499459
Ar       5.70966802      13.09720550       4.63082119       0.02122996      -0.13887801       0.06677179
Ar      12.36866767      10.72161015       3.58157180       0.06175438      -0.06830832       0.06595111
Ar       7.03616609       9.93723412       5.07563096       0.01988124       0.02629361       0.05011219
Ar       0.83812869      15.53562308       0.92864424       0.07118606       0.07307120      -0.07495240
Ar       7.95027084      14.08807718       0.88514522      -0.06714893      -0.00763363       0.02543633
Ar       8.82136096       1.15086638       1.18578636      -0.03968350       0.05459947       0.05143824
Ar      16.46727529       8.63126451       3.73879094      -0.05769114       0.04611987       0.01348667
Ar       2.72732058       9.46809271       5.41872746       0.01508073       0.00140085       0.08423500
Ar      13.35379919      14.37314029       6.77658261      -0.02423358       0.07835649      -0.02414417
Ar       4.56761353      13.66826788      17.10310748      -0.03834793      -0.09367551      -0.08620416
Ar      10.59345433      11.32870306       6.96897726       0.10824315      -0.03051312      -0.08842169
Ar      16.01261222      14.56653840       4.35674297      -0.07317286       0.02398750       0.02145372
Ar       9.32534277      10.68977171       1.92108979      -0.02623310       0.08546099       0.03381118
Ar      10.93964532      17.07008738       3.98993871      -0.03270605       0.02206821       0.02191222
Ar      10.34787041      16.98603173       7.48509672       0.03692938      -0.01173222       0.01820751
Ar      15.70478559      12.25487629       1.51064742      -0.07434772      -0.06345239      -0.11251407
Ar       0.46215151      15.96835874       8.89049337       0.10211076      -0.00955432       0.01386335
Ar       2.39950371      13.21864851       7.36463095       0.02647466       0.01714763       0.03252635
Ar       7.98258600      14.25423657       8.45541563       0.04094644      -0.09631038       0.02660853
Ar      11.80574226      14.25561897       1.38472787      -0.06114810       0.01164904      -0.01782782
Ar      12.60549353       0.54210414      17.33678189      -0.10994174      -0.01714690      -0.05534631
Ar      11.71970281       7.72104257       0.79757879      -0.00925013      -0.07795043      -0.03225318
Ar       9.47294051      13.47781808       4.77696892      -0.04317029       0.02003131       0.00215856
Ar       3.49464608      15.67269101       3.36159636      -0.05170839      -0.01886856       0.04279855
Ar       3.83692709      17.24693107       6.87063869       0.03451811       0.02320367       0.04985790
Ar       7.11236928      16.98449885      15.80107373       0.05425766      -0.01818497      -0.05298078
Ar       2.41835519      10.92630322       0.51186282       0.00314982       0.00811108       0.05994321
Ar       1.23834565      10.31321599      13.02644006       0.03069292      -0.05232786       0.08030047
Ar       2.04916779      10.25180744       8.97293131       0.04519719      -0.05430804       0.03189264
Ar      12.13516284       9.83795883      10.27803809       0.08091206       0.04559388       0.01216041
Ar      16.47332884       9.28290476      10.15609570      -0.00060500      -0.01939855      -0.03359910
Ar      15.43189008      13.59719048       9.72391601       0.02246842       0.02089847       0.09426134
Ar       4.60453344      14.49908221      13.18766661       0.09092983       0.05118286       0.00312332
Ar      10.34034341       8.32252393      14.08518020       0.05491313      -0.06303802       0.04029506
Ar      11.85431465      10.94575883      16.72855236       0.04938291      -0.03491638      -0.05066556
Ar      15.00758645      11.87078924      12.91261537       0.03161918      -0.03736864      -0.06982182
Ar       0.28525936      13.50385670      15.10042345       0.10544789       0.00252063       0.01914078
Ar       1.54302547      13.17670720      11.10316155      -0.02814058       0.06352643      -0.06702360
Ar      16.39403346      15.87177683      12.13726711      -0.01113438      -0.07803311       0.13283024
Ar       7.82162120      10.46478085      11.47620576      -0.02763043       0.02984627      -0.06353113
Ar       7.95741116      12.08927366      15.35071173       0.00741095       0.02597855       0.05107981
Ar      13.54586646      13.74632824      15.85012151       0.00524862       0.08894613       0.05472162
Ar       3.94737129       0.57912518      17.06936742      -0.03914377       0.00884042       0.08041434
Ar      12.74143359      16.25039617      13.19657659      -0.02040477      -0.07709586      -0.00109087
Ar       9.92732184      15.32989583      15.49741091       0.01458848       0.03601640      -0.04020645
Ar       4.44476777       8.88945547      11.68592919      -0.07667750      -0.12478969       0.05115642
Ar       8.06787427      13.98555693      12.25130471       0.02841725       0.04217796       0.01883292
Ar       5.20698892      15.60100324      10.00422056      -0.09469720       0.02343458      -0.06487665
Ar      11.32135655      14.66159876      10.03151954       0.04704792       0.04309084       0.03508447
Ar      11.01643659      11.98180588      12.81553550      -0.02560432       0.03227105       0.11305357
Ar      16.83645030       9.99616267      16.15129995      -0.04093722       0.06877929       0.00960202
