108
Lattice="17.35 0.0 0.0 0.0 17.35 0.0 0.0 0.0 17.35" Properties=species:S:1:pos:R:3:momenta:R:3 pbc="T T T"
Ar       8.46367499       4.27027533       8.98883823      -5.24507260      34.22806289       0.24036380
Ar       7.35484498       6.15174579       6.12472738     -10.18215453       9.70577576      13.88014977
Ar       9.90386429       6.13207463       2.65678049      -8.09913341       2.64647575      -5.56377235
Ar      14.26303980       9.74243797       7.47219501     -50.86613259      50.18087101      31.77665594
Ar       6.52856456       3.79615642      12.40607423     -49.27827707       9.25616479     -44.73341722
Ar       7.61936728       2.89569289       3.97426158      20.71045094     -48.53896853     -20.92925523
Ar      16.79415736       1.66192221       4.49779159      -9.44817738     -21.54736965     -24.67514029
Ar      15.65531400       5.07406360       6.26892403      28.91094281     -22.70741114      -4.92787253
Ar      10.86701168       3.97079408       5.65555690     -21.01773980      24.73294078     -18.37402850
Ar      16.54097468       2.07880683       0.94824743      26.98449253      -6.35824754     -48.55553324
Ar       9.87253099       8.84601692       5.54599206       9.25238340      22.94702825     -17.16522126
Ar       5.86394960       1.91150903       9.67932514       9.28690525     -24.42504738      92.63862221
Ar      15.78926454       7.02685525       1.60157521      13.33523657      42.84228554      32.35713923
Ar       5.78571516       5.42255806       2.71600100      12.11752157     -72.55496507     -68.50010478
Ar       9.94225103       2.59174972       1.07257886      20.14288508     -36.29139644     -90.11747220
Ar       0.59392027      14.77099815       4.01632719      13.05368714      16.08350024      43.88863692
Ar       5.65852146      17.35536320       6.03443146     -19.42844258      66.78365500      44.68551088
Ar      13.39986721       3.90101147       3.01680140      41.10119121      10.75342818      25.52509970
Ar       5.61178456       9.67272872       7.70843529      23.64021905     -36.02530945     -20.46844857
Ar       2.73055325       4.26366812       0.75561391      -6.27251891     -43.89431614      18.40810073
Ar      13.10680092       7.50616820       4.05117680      23.34111448     -13.12316954      76.17096094
Ar      15.74368784      16.26447593       7.48416187      -1.72335667     -31.95943778     -11.00344605
Ar       3.07479022       1.31699236       3.61072020     -40.98475728      -9.70019085      -5.51949770
Ar       4.85681316       3.50383782       6.44815495     -20.66298942     -19.75613425     -11.75997641
Ar      15.70270688      15.50759687       1.03229633      12.16800990      -4.13012404      28.60986743
Ar       6.38290189       4.63204576      16.32191007     -31.47420045     -97.06592124       1.02536749
Ar       4.98996716       1.34205453      14.39729778     -22.72870914     -33.63354478     -11.75756304
Ar      12.14017760       3.18291208       9.15610022      -7.10379852      65.30749077      -2.13197449
Ar      15.23834959      -0.13140667      14.65412854     -51.20220835     -40.67365995     -80.31186904
Ar       1.63378911       1.40710432       7.33458358      -0.32882574      -1.55887370      29.92254647
Ar      10.13222014       5.60579920      16.23396998     -23.21041241       1.09025541     -61.64486800
Ar      11.49584520       6.88064319       7.94861720      16.71702594      16.85031352      18.78268399
Ar       8.41104732       7.93680610       9.70065887      -7.89742632     -34.24920325      41.54934358
Ar       8.73093504       2.30476374      14.89090943      45.27574331     -21.41558065     -55.68848092
Ar       1.98850228      15.80743534      14.18907679     -22.97927705     -32.94151857     -22.63840754
Ar       1.64635217       8.02482057      12.33552819      29.91458316     -18.18196890      29.65417735
Ar       0.09937544       5.65461173      15.71420444      -8.30196583     -62.34232997     -35.00209564
Ar       1.18334133       2.22397108      14.75078255      -8.38088871      -0.91218369      10.61121498
Ar       7.53034286       7.55209419      13.30317161     -32.03527850     -34.61142080     -40.53498305
Ar       9.14479939       0.92065266      11.05293740       6.30673879      13.61274267      31.46452801
Ar       1.70477909       5.08132978       8.06696000     -12.26541174      35.88011233     -41.63837236
Ar      10.71486062       5.50806616      11.81682489     -20.49479238       6.05854449     -50.93201116
Ar      16.13743597       4.19904881      12.53735880      27.79582847     -19.73466680     -25.47629838
Ar       7.36197208       8.23197991      -0.06002685      16.22408589     -13.72273943      13.46694452
Ar       3.53352749       5.00668053      14.25370890     -37.23630220     -21.66286309      58.60070675
Ar      14.47509436       5.95893912       9.84764172     -30.37747031      -1.70731296     -13.20448560
Ar       4.10280419       8.60393671      15.53603100      51.71098643       7.99535868      35.54220465
Ar       5.00510714       5.66703588       9.22590038     -32.58658591     -38.21486216      27.11928313
Ar      15.19307498       8.51556347      13.40630552      12.64650323      19.85480392      -3.72221748
Ar       2.26730246       2.79959933      10.85227740      56.41056784      26.73600069     -13.94104447
Ar      13.99739558       4.54911132      16.87466807     -39.76110948      12.40418270     -19.64067789
Ar      15.77241098       2.22480989       8.91414697     -22.21675341      53.04658273       5.14595350
Ar      13.40511977       1.27625633       5.58499732      24.01532489      38.95624056      52.84323046
Ar       6.06487867      12.98296299      11.61650141      37.56358008      -7.51893590       5.43248729
Ar       3.23105887      11.18326114       4.35967498      36.88327121      -6.24354316      13.34531415
Ar      17.66872593      11.92895435       6.62348332      74.75752031      42.06021642      -2.62037096
Ar       4.58206612      11.67535414       0.68755853     -29.33331536      -8.81212194       4.60884637
Ar       5.98149435      13.15868921       6.33652313      83.43158719     -44.13087777      25.94056705
Ar      12.85162168      11.02273716       4.08956952     -89.02640696      48.33303429      30.59883998
Ar       6.42753955       9.27846204       3.53076739      32.09757757     -79.78308552      -3.91689231
Ar      16.09739429      11.28010715       2.03312478      -4.08378576     -44.16301598      -1.91776444
Ar       4.27832759      15.03978751       2.72492144       7.23671321       6.97117625     -14.66600041
Ar       9.64189027      16.73129122      17.14092946      -1.77042559     -29.86950394      17.20265363
Ar       1.01763669       4.84968094       3.94222280     -52.49903244      19.06460372      38.13259686
Ar       3.58041773       7.15088680       5.57077872      96.74551633     -24.55820969      35.75941443
Ar      10.51897594      14.28311371       6.30682573      64.17346732     -41.18148044       8.57164933
Ar       1.39144068      13.53555254      17.44633259      33.73774135       2.01545930      -1.57165499
Ar       9.00383457      11.45445043       8.39368745      44.24343744      -1.97647363      31.29317265
Ar      14.23729051      14.76157978       4.16178487     -42.26902352      36.41864943      19.22093855
Ar       7.55164862      13.64752206       0.80718349     -54.58097856     -17.79755874      41.23736088
Ar      11.03501319      17.30999113       3.14936371     -76.60871238      40.34850140      -9.38388017
Ar       9.16640522       1.09590522       6.92937354      -3.99235653      50.90890611     -55.03310535
Ar      17.40041857       8.30246661       4.81422415      -6.11190236      28.28490160     -24.88377443
Ar      17.40020280       0.14770487      11.56178307     -17.27949688       4.34178905      -3.80312127
Ar       3.06954801      11.95187939       9.35745188      51.18765500     -11.95259663       7.89073627
Ar       7.67119022      15.51571455       8.80109820     -23.72175054      39.07040592      66.31076802
Ar      11.95011632      13.40417745       1.46983476     -28.49655906      18.53072140     -10.68700043
Ar      13.10312119       0.87249526      17.43439638     -36.59170169      -9.37742420       9.32474822
Ar      11.03273283       9.41476214       0.87327081     -40.13371582     -10.51371464     -16.06771171
Ar       8.83315985      12.34251444       3.66160760      -9.86220888      38.57648539     -74.79089385
Ar       2.13091754      -0.06617663       0.51678141      48.78313916     -13.13262193     -13.39897558
Ar       2.77605375      15.06475298       6.74721702       4.53016701      -3.94791745     -56.62615327
Ar       4.78375258      15.09873748      16.27039764     -23.25251734     -33.68062933     -36.84397746
Ar       1.93188020       8.54093416       1.49774810      26.85817760     -27.42376058      -7.07706226
Ar       0.32036602       9.94199839      15.80530086     -39.81030008     -54.35087626     -15.11151236
Ar       2.18487817       8.38810642       8.81342957     -32.07749635      81.55930419       2.82146554
Ar      12.60774749       9.01496138      10.44099429      59.47218554     -44.18172281     -39.37764795
Ar      16.94436788      10.94049182      11.20346693     -51.24939077      11.32216003      -8.90517712
Ar      13.30933097      12.84045142       8.90451200     -13.01480985       0.69147640      52.72178025
Ar       2.53757044      11.59669669      13.25951517     -34.15781680     -18.10425955     -18.41535886
Ar      10.93896476       8.79788263      14.62553601      25.53238083     -21.90461902      37.29626151
Ar      10.07796983      12.72870971      15.39882934      38.89430620      53.61850970      -4.67095218
Ar      12.90312047      12.06834921      12.72961439      30.87862269      68.61286378      -4.10638358
Ar      16.45680943      13.48185523      13.82255773       9.20924302     -80.40634184     -43.49332809
Ar      17.78882935      14.29464644      10.07976413     -30.30207999      23.16614496      18.89729838
Ar      14.28417500      15.28469277      11.51235944      10.84015323     -10.13739518     -10.15735088
Ar       9.01242069      11.01010436      11.99108956      13.66420577     -14.45027512      24.58023612
Ar       6.74891249      11.26718360      14.73220043      52.16751695      37.29307208      79.97136859
Ar      13.41435676      14.43746241      15.63857365      35.56219359      32.57560427      -4.59737852
Ar       6.04399577       0.96260980       0.87607647     -17.33523193     -11.63647267     -37.25857597
Ar      12.79990866       2.56597993      12.78093901      -5.37515768       8.41584183      11.64968738
Ar      11.32713489      16.83473808      13.64311960      66.82946559      48.41356791      -0.79252605
Ar       4.96834764       9.53119849      11.52201158     -61.60468455       1.34059412     -35.33286478
Ar       7.70366289      15.65313972      14.15166098       6.07479534      14.20242201      40.65189854
Ar       3.88151021      16.03484878      10.35263268     -20.52514335      87.15324648      41.95747867
Ar      12.19678531      16.82562070       8.63854240     -14.96476335     -10.52032453       2.56011822
Ar      10.47863847      14.28034039      11.20716653     -15.11950201     102.24433111      25.62283279
Ar      13.95285219      11.06667262      16.11861463      -3.47661231      11.90969036     -31.44388149
