108
Lattice="17.35 0.0 0.0 0.0 17.35 0.0 0.0 0.0 17.35" Properties=species:S:1:pos:R:3:momenta:R:3 pbc="T T T"
Ar       8.15060735       0.45145083       5.31466380       6.37000993     -49.62122147     -49.37416937
Ar       8.08934823       8.16631403       4.26390698      18.17799878      48.30884641      44.28344001
Ar      11.01254502       4.80190303       3.44957392      67.85053395     -19.95740820     -17.32035974
Ar      11.57730028       8.18885571       5.28651151     -54.05009004       3.05509606      36.41156253
Ar       6.35832635       6.88910826      11.47197370      43.98880199      78.47163566       0.46882326
Ar       5.50172020      16.60128645       2.81181606     -15.02915381     -27.07062733      57.55391657
Ar      15.58640149       2.01893748       6.58543238       5.69684157      -8.27883680      34.61131451
Ar      14.92711295       2.58648870       2.69108838      40.97971079     -58.23364662      45.80298505
Ar      10.07273377       1.55533731       1.08876387      -3.01772894      36.26015627      -0.14564257
Ar       0.71108444       4.34580918       2.76911511      -9.00404969      24.57191059       1.98448833
Ar      10.71703507       6.42962346       8.99741311      12.66489714      12.86884758     -79.55667288
Ar      10.24273556       2.68923655       8.93589049      20.27625060       2.48645889      -7.92237059
Ar      15.47232744       5.08264936      17.19314825       1.41620430     -52.86515803     -65.33602277
Ar       3.76394233       9.65930908       4.02769396      48.15888442      10.25072918       8.94766192
Ar       7.71378068       5.20814204       1.53922065      -3.68969267      -7.50513837     -40.05553290
Ar       2.41557842       1.53233388       4.22431984      47.12284742     -18.40098483      32.67896201
Ar       4.43990052       0.77780668       7.13532528     -81.47129950       4.06596320      17.05944123
Ar      14.08192062       6.56311482       2.68621726      -9.68783963     -67.92095194      19.68917462
Ar       0.86985201       9.79490926       7.30402022     -78.99789837     -15.62620271       9.40312935
Ar       3.62888490       6.19187882       2.00331891       3.31768461     -15.71424976       3.93367603
Ar      14.62098008       9.95465897       1.49311915     -19.34473948      58.49020342     -33.25072521
Ar      17.70837303      13.52866528       7.42938307      59.74935948      53.06388466     -14.81106178
Ar       4.72305784       6.67948556       5.61392681      25.49179791     -22.42025999     -14.48872193
Ar       5.90447264       4.29838515       9.02194580     -31.57230384      79.83582846      -5.44368080
Ar      15.10329216      15.00942223       0.58602450     -54.48975863      36.65295617      31.05619456
Ar       7.28472300      17.54867901      17.00040174      68.61775791      27.13831339     -33.83945153
Ar       5.33419256       2.90806374      13.75946466      -8.67087747      92.68844497     -23.08357521
Ar      13.12397353       0.55458236       9.63709096     -18.33238994     -78.48479614      -4.46832356
Ar      17.23459174      15.59244825      14.52568268      17.35473913     -26.65932303      32.79908883
Ar       1.70523915       3.52829910       7.21427230     -15.47793536      24.59891583     -46.59275859
Ar      11.80921245       4.43692126      16.70634628      11.97186755     -13.56439027     -26.10576360
Ar      13.06000718       4.88025362       6.68012181      23.19588130       7.81199690      74.78690320
Ar       9.86977189       7.84376505      12.58266643      31.38246034      10.92566091     -15.59158631
Ar       8.73497113       3.30181473      12.08242186      20.94485067      44.80885658      45.63553628
Ar       5.42648108      13.83173124      11.99680296      21.07886688       0.64569814       4.42505805
Ar      16.63273083       8.07641773      15.74525548       9.78946074     -17.90766171     -36.62243535
Ar       1.99443234       4.97498552      15.99863909      20.81558369     -11.58736056      -3.64261181
Ar       1.63558250       1.66319792      14.38045676       0.07783068     -18.51430201      23.49214667
Ar       8.35779431       3.47659414      15.66460230      19.68995132      32.82979856      41.26403721
Ar      10.45359016      16.79899650      11.30171803      16.87580483      17.21440214      -2.47618657
Ar       3.38528711       7.62351445       9.41531055      16.74020847       4.92201534      25.73625418
Ar      12.28639565       3.67379967      12.77824616      -9.35733876     -40.99070363       5.90629873
Ar      16.39270261       4.92037418      13.14605606     -18.44663380      41.03816164     -14.27607183
Ar       6.28973465      10.81806818      14.64302129      14.83287761      53.26925294      -0.87594333
Ar       5.36133516       6.47588555      15.52231584      19.85955463      38.90057028       1.46015003
Ar      -0.42928443       5.70006277       9.60087205      -1.90489910     -56.16318978     112.93989505
Ar       3.15711927       9.46124362      16.70365511      78.80197813       8.96274562      11.20137256
Ar       3.48945106       8.82577360      13.02272165     -53.53280118      19.83807235     -13.40401791
Ar      13.14295140       7.71317061      16.33266091      26.63485052     -11.32676310      23.46004707
Ar       2.76269776       5.09756125      12.15571453      97.49158207       7.11023327      28.76380347
Ar      13.39340678       1.15737084      16.81380346     -15.88591121     -66.07670599      44.07843044
Ar      -0.20193714       2.00396226      10.56791568     -16.88154286      13.43308968      53.29297922
Ar      12.62124536      16.30833912       3.48131894     -39.11461781      -0.10968812     -11.22463180
Ar       7.30285183      17.09217353       9.03507221       0.79006826      13.12805901     -10.82844854
Ar       0.66247653      11.75477134       3.92096243      -3.85162930      30.87800503     -15.21878100
Ar       4.80897857      11.24124144       7.08053573     -18.33809231     -49.22036893     -31.80242182
Ar       3.44353157      12.69109460       1.92795809     -11.01014585      -7.62541503      14.24232440
Ar       2.79917520      14.98941024       5.09761613     -19.90911545      -7.62595852      16.79801225
Ar       9.53536892      11.66673039       6.00441792       6.86625820      28.11879614      30.47901640
Ar       6.52204161       8.78766076       1.00048463     -77.61688383      63.61065503     -57.69524495
Ar      16.87055830      16.49733466       3.99907237     -48.10085022     -19.40382996      32.12651764
Ar       2.08144257      16.04644101       1.55939097      -0.73211910      38.93582786     -11.85934770
Ar      10.70315869       0.74245226      14.69723340     -56.17076602      11.55016037     -20.29931125
Ar      16.59905322       5.72657094       5.87856484      29.92420143       4.59566544     -32.38953133
Ar      15.24730290       9.45847225       5.00630112     -58.38199494      -9.45222608     -27.98144363
Ar      10.75230632      15.32049275       7.31142287       7.96786051     -84.30718530     -34.32589049
Ar       2.97291504      12.59153684      14.36428044     -22.15617872     -25.39097002       2.74921814
Ar       8.46614893       5.22976510       6.45370617     -14.02362845     -15.90361368       5.06325539
Ar      14.62419896      15.74762769       6.81774340      44.60263294     -11.38707210      30.52393290
Ar       6.44519289      13.67781976      17.28536243     -22.63476333     -17.45977540     -31.48523245
Ar       8.74447077      15.14783091       2.25799449      87.39775012      31.11376158     -43.02216523
Ar      11.95957756       1.29917299       5.94145517      18.74205068      42.58796757       4.57699616
Ar      14.82051949      13.21899251       3.89603630      47.61220925      37.73730615     -18.17534574
Ar       1.73629179      14.76299437      11.40992517      -4.25244631     -15.85710905      28.77871944
Ar       6.20324027      10.51413495      10.84345927      21.20117830     -34.43036547     -11.31631303
Ar       6.75422824      14.27746162       6.10769480     -40.02820340     -46.37251936      14.96749668
Ar       7.09415171      11.79974784       3.17672709     -40.05144617     -61.01284333       0.38135945
Ar      17.55757303       1.59644203       0.31443266       5.15388669       0.53613674     -60.74272106
Ar      10.82973781       8.04851168       1.61099733     -92.66488103      28.97652634      11.36633589
Ar       7.62529383       8.81006013       8.00705693      13.83268176     -60.35040757     -12.96149841
Ar       4.27314311      16.00277662      15.32879936     -41.05175906      -3.09207749      50.84979878
Ar       4.26598689      14.81122998       8.70130003     -24.31204118      10.05595806      11.78234040
Ar       8.72678322      14.68354665      14.48188413      27.74516580      15.22945837      13.61518043
Ar       0.55880145       8.02520947       1.72965657     -43.79888251      14.46357833     -42.05487093
Ar      -0.18827578      11.72713180      16.88634020     -51.25389462     -29.56233002     -17.08229001
Ar      17.31101457       8.87891132      11.36620944     -37.72184636     -18.68425318      -1.00802994
Ar      11.15910722      10.11271940       9.54699573      -5.29440511     -20.09564815      37.65876456
Ar      13.83874450       9.25934844      12.86918693      21.89033892     -16.42452884      56.45146730
Ar      13.08796568      12.13403662       6.94725110     -31.64322153     -22.92554603     -25.59724880
Ar      15.13569790      11.57167115       9.87358544     -34.89899930     -19.33219675     -19.41866838
Ar       9.21310318       7.17067426      16.15202708     -11.52067250     -14.53864876      39.31299271
Ar      11.29327555      15.18400511      -0.14111851      -7.84116532     -22.70560610     -31.20579640
Ar      13.43624094      12.35689483      15.61505076      -6.28351990      13.60802409       6.20088405
Ar      16.71564167      12.32786799      12.94746134      56.99591217      76.92566865     -20.81380045
Ar      14.30319114       8.09628299       8.32859070     -32.34044765       0.04369461       6.71687775
Ar      12.16509907      13.39429992      10.59895100       8.89689208      19.88433550      11.98796832
Ar       9.74014946      11.40831280      13.19825666      45.32558941      42.43657487     -60.25960950
Ar       9.59270339      11.44399980      16.98665531      66.43132300     -40.07368975     -53.95332933
Ar      13.32552537      15.38723316      13.40571490     -38.95718866      32.03036985     -35.62967329
Ar       3.88640136       1.87236330       0.04117852      32.61015817      48.32354695     -46.12758447
Ar      15.43736749       1.25672463      13.78028379      17.84531539     -39.90180139      24.05009939
Ar      15.61382076      15.25464694      10.44196807     -15.06244629       3.74940227      -3.20182188
Ar       2.43729767      11.12964723      10.29490084      67.46685943      -3.05204845      51.30039464
Ar       7.26375263       0.10839777      12.93024592     -14.73203920     -31.11075545     -42.74059683
Ar       3.67629489       1.07779913      10.64905328     -15.20484360      -6.47641982     -23.40709329
Ar       1.20978854      17.15053947       7.87287043      12.83897131     -81.54293544      15.52426125
Ar       8.26698087      13.18400032       9.21661290     -34.41740928      60.94995586       1.28852784
Ar      11.47711023      12.16295372       2.62339973     -25.33780460     -23.67046394      10.59291495
