108
Lattice="17.35 0.0 0.0 0.0 17.35 0.0 0.0 0.0 17.35" Properties=species:S:1:pos:R:3:momenta:R:3 pbc="T T T"
Ar       8.27004797       4.21571260       8.72366179     -78.86034476      39.70490398     -23.16673055
Ar       7.35039371       6.49754365       6.29135864     -36.42957114      12.91245758     -16.94508415
Ar      10.02340667       7.15898672       2.77997170      14.43427471     -13.68479332     -28.09065310
Ar      14.79975948       8.32008372       7.50422220     -39.27949786     -47.92769482     -22.16268679
Ar       6.11688133       3.50017464      11.67131216      -2.18513281     -39.76193950     -33.54792733
Ar       7.03351160       2.72599589       3.94350085      -4.34991146       4.32589437     -39.87088262
Ar      16.89509166       0.38538707       4.11141488     -38.20219083      55.81731901       2.87998742
Ar      14.59233510       4.32364496       4.34392695     -38.50332388      56.10534639     -53.23691236
Ar      10.50224328       4.25704933       4.66642441     -69.23751943      19.69323220       1.17024815
Ar      17.15035478       3.11714486       1.83065401     -39.71497877       5.66630993     -54.90739669
Ar       9.79316155       9.50393782       5.68766890     -24.37697766      -2.46766468      21.75857174
Ar       5.36073300       1.03498704       9.23079464     -25.38156738      49.26477689      32.94615601
Ar      14.72142945       6.32789158       1.11229961      35.37108253      31.11933615     -28.49032520
Ar       5.77909300       5.87847320       2.38295309      33.57630132     -21.56135311      15.61042947
Ar       8.94368673       4.12570924       0.95646196      -4.01057585      19.52016391     -54.10214622
Ar       1.43740259      14.80168401       4.31873739      -4.41003042      29.79414044       7.09166826
Ar       4.87311354      -0.44691206       5.52786839      50.06157195       0.26188851       0.73027919
Ar      12.64583234       3.17318433       1.28539681     -51.15607631      41.97848573       6.76489510
Ar       5.59824146       9.31820233       7.58927901     -18.36638653      11.55050617      -7.29922839
Ar       2.67442889       3.43124063      -0.18518828     -15.85092295       4.14114992     -21.58863786
Ar      13.26605348       8.30012653       4.16948145      53.84344264      -6.40946046      40.68578902
Ar      16.64201990      15.44713492       8.04141365     -47.27653728     -10.79114534      16.74714543
Ar       3.46946625       1.39656479       2.81232340      21.07917050     -54.83112993      15.73525388
Ar       3.86007370       3.28704072       6.70750035       5.80810219      -1.11903766     -35.74545915
Ar      16.06026292      13.80651930       1.43208889     -38.43507933      33.18032831     -11.42297661
Ar       6.21377325       4.15968511      15.22464768     -34.00375259      33.89696893       2.73264051
Ar       3.10358033       1.02811052      14.70480007     -48.29900180      -7.07353763     -29.69262295
Ar      11.54784418       2.87839834       8.41392530      -3.53526923     -26.99743707       7.28629870
Ar      15.36238425      16.27217414      14.52153609      27.45185677     -14.30789631      20.73860025
Ar       1.45516545       0.74715262       7.33359697      51.37210048     -77.77705243      -2.37443883
Ar      11.34846235       6.12515113      -1.71582387     -48.95693097      -5.88063903     -27.52661462
Ar      11.66897563       6.43344243       7.34454011      21.12893834      -7.85405784      33.27379378
Ar       8.81900586       7.78237213       9.63891420      35.97156642     -65.97076974      -4.91719825
Ar      10.26220267       4.37094984      11.91856083       3.68195717      -1.51158287      19.47205469
Ar       1.45933843      14.88747351      14.46853039      54.25081432      24.69181414      -3.30273191
Ar       1.57523888       9.67419060      14.42093213      34.16188129      13.98893868     -29.36722074
Ar       0.35292214       5.80917921      16.03707899     -59.21254043      96.15331122      42.06965733
Ar      -0.55382959       2.32130144      14.24330480     -11.25533742     -33.21380069      -2.60809776
Ar       7.91336637       7.54351517      13.90038593      53.77495621      27.41621895      17.28489097
Ar       9.40265980       0.50191980      10.13878896      -1.16926387      13.55415764      40.13074113
Ar       0.67181184       6.39437041       8.57717289      16.86583584      -9.38001495       5.49646187
Ar      12.46581729       7.96817852      12.67795581     -26.22207671      49.39781871     -48.95508945
Ar      17.11323413       6.41142524      12.47833197      28.37403840      23.23580781       4.25042508
Ar       7.19569345       8.52704575      17.70875905       9.10943722      21.44612881      32.19772141
Ar       3.58712631       6.62813252      12.92077980     -21.37695537      -3.69946832      32.45405419
Ar      13.77797613       5.51276954      10.40431667     -22.65318356      18.54999914     -42.12771922
Ar       3.79268286       9.28213491      17.24263087      23.32298105      47.91865736      -3.33040102
Ar       4.72480752       6.22607568       9.48656676      20.49561199     -14.85412306      54.78480607
Ar      14.58870988       8.87628283      15.42667725     -53.06164679      54.13290704     -18.58642671
Ar       1.72964619       3.57138118      11.09291474       5.52427597       2.04431622      13.18967197
Ar      12.29693387       1.85539062      15.13140743      33.09837470      -6.45701493      36.36979613
Ar      15.83743430       2.54853420       9.02950483     111.94675810       3.21684453      49.82361813
Ar      12.69357876       0.81550423       4.25231322      17.82622064      36.43155868     -80.02720205
Ar       7.26478585      13.49737654      11.88056532      13.63965710       4.08405426     -17.29288084
Ar       2.35086283      10.56170395       3.71774631      35.97977516      97.96279552      41.49050782
Ar       1.56154686      11.35285905       7.13323614       7.75948498     -98.01693416      11.49294127
Ar       6.29981168      11.88635538       1.33674146      48.51635425     -33.62830229       9.39785796
Ar       4.98164248      12.71952397       5.55198473     -24.69204925     -22.82090461      29.71739893
Ar      12.59492836      11.81764551       5.09744296     -25.25665356       3.90725594       0.99499363
Ar       6.17042236       9.30770646       3.87748827     -47.92828287     -17.35880773      38.19849617
Ar      16.17463820      11.19091513       4.39343741      43.45250314      28.69450416       4.79127987
Ar       4.26615460      15.23822517       1.79088845      24.82382420      11.52689987      10.75904469
Ar      10.08575460       0.60692345       0.43948099      37.37490295      37.45496595      -7.50688338
Ar       0.83687624       4.26172819       5.27755253     -23.41014241      -2.45975421      -2.90164237
Ar       3.41491010       7.13527437       5.60865808      50.38276240     -43.94144136      34.04724230
Ar      10.82332487      15.54607005       5.91444362      41.82508281      39.54611344     -61.27899041
Ar       2.19566193      12.46287017      17.14765837     -10.99135768      31.02176223       5.14002337
Ar       8.41675601      11.80539210       8.34158283     -24.94913661      -5.34076941      -7.35582973
Ar      14.58851851      14.84767693       4.95377278     -52.39283823     -33.40130473      19.06794332
Ar       7.79328493      15.02227964       0.21299537     -12.08031458     -57.94038719      32.61969873
Ar       8.17815422      16.71381649       3.40968364     -36.72673868       5.41460459       6.23716504
Ar       8.53632828       1.27882086       6.68373056      15.84123387     -30.72320250      13.94759824
Ar      16.85650221       7.47285749       4.42896562      29.13854519       7.61197664     -61.11669026
Ar       0.49694819      17.18619634      11.30405319      13.42027675     -42.12079927      38.09874198
Ar       5.11858693      12.35948487       9.50096008     -50.31558255      21.91803206      13.81875801
Ar       7.32998031      15.23687551       8.28257314     -16.70392566      17.00457069      25.71172624
Ar      11.56449126      14.63314008       2.59403463     -53.51834032       4.09697439     -36.08263936
Ar      14.42540748      17.43316835       0.69379290      22.42194767      29.53702048      21.99192875
Ar      10.46517259      10.71490971       1.84448172      30.26925112     -10.23353523      -2.79544862
Ar       8.56895950      12.87905764       4.44368312     -34.72369120     -34.21888122      51.48439637
Ar       0.87459502      16.94314458       0.78366935     -19.80569296     -53.32329784      -5.53958340
Ar       3.04791060      15.03030968       8.40236916      38.18358568     -27.50250318       8.27509066
Ar       4.75069763      14.61752533      15.57091607     -23.88920622      44.62285735     -45.45948871
Ar       1.87717156       6.39556074       2.01443594      26.04482718     -24.19120893      -5.83805392
Ar      17.44653957       9.38036783       0.91823747     -48.88607640     -70.07237344     -26.55567865
Ar       2.32602697       9.59350938      10.35212268     -92.05028397     -86.07805156      13.99190561
Ar      11.98658902       9.71397998       8.94978727       5.83948589     -45.53519972      47.41681602
Ar      16.09676750       9.48586685      10.83023629      16.52298079      -8.86343171     -40.84506159
Ar      15.14917061      11.98883277       8.20267057      25.81895307     -42.26665984      71.21348274
Ar       3.68813561      12.25301763      12.69154698       7.01765055     -41.12163047      50.82022503
Ar      11.02879126      10.36558642      15.13143352      57.95109178      74.26678234       3.40570887
Ar      10.02094406      13.77301324      14.89640737      -1.84732332      13.67926746     -27.28168641
Ar      13.08336061      11.71200655      12.20731346     -10.69914843      58.68428264     -48.87374116
Ar      16.17214414      12.10602811      13.82964462      11.92405657      46.47002110     -69.96124829
Ar       0.83490847      13.20028466      10.60595409     -21.29484045     -19.07179954      41.33846282
Ar      14.73472677      14.94333992      11.28351279     -31.75030319      35.08171205      34.39170557
Ar       9.45541339      10.75543853      11.86390634     -12.73743867     -27.46293589      -2.62510988
Ar       6.86094318      11.22254449      14.75628516     -12.83669933       6.08346304     -22.34077872
Ar      13.55726030      13.31369853      16.03568628     -23.18966818      29.67423211      27.77697303
Ar       6.28830015       1.21304747       0.11358461      21.45696592     -59.57640650      -0.30285508
Ar      13.45136477       1.81873294      11.69201616      33.42911668      21.65178601       5.66895154
Ar      11.72360840      16.09931954      12.98394666       8.31148235     -26.05555973     -41.64022438
Ar       5.83112816       9.06760995      11.55406994     -41.19237995      -0.89895010     -29.13777734
Ar       7.54358925       0.47551636      13.86726112      59.35745070     -49.56062187       8.67045800
Ar       4.38061798      16.10344152      12.04205667       4.46313932     -14.24200626     -45.57263517
Ar      13.19720934      16.99822486       8.21755717      51.16417878      25.34736621     -14.13156362
Ar      11.56833439      13.57496969       9.18492731      60.15278329     -38.14472174      39.05896102
Ar      14.13398502      10.40763742       1.51081860      54.62579714     -36.75099200      11.11716234
