108
Lattice="17.35 0.0 0.0 0.0 17.35 0.0 0.0 0.0 17.35" Properties=species:S:1:pos:R:3:momenta:R:3 pbc="T T T"
Ar       6.81589900       2.65756424       2.02137346      32.93164751     -22.69563675     -34.49474662
Ar       6.79301819       9.38089104       4.58981167     -37.40006577     -14.57095882     -56.58466558
Ar      10.45117709       2.86118594       4.64134778     -72.60049620      24.46015815     -41.14792403
Ar      10.53430483       8.02082769       6.12805984     -78.28435101     -31.55155935     -26.41366418
Ar       6.21881424       6.50457587      11.75676881     -33.61108545      12.18520772      37.26556337
Ar       5.70225069      16.68479133       2.26561830     -12.75470884      20.49944856       1.61418258
Ar      15.36072994       3.20164509       5.71050502      28.91347722      15.14402511      32.66201489
Ar      13.44299640       0.89004980       3.32457450      16.29245978     -32.61337301      19.09138414
Ar      10.50404964       2.50789656       0.78639978       7.19260962      -5.33771256     -12.37373325
Ar       2.90575676       3.94893875       2.95019894       5.02714213      41.29516084      -7.42734948
Ar       8.57559840       4.60102878       8.49061102       4.18220498      -4.80777500     -27.70359159
Ar       8.53510395       0.62124740       6.65238863      14.24253614     -45.80852675     -29.41880556
Ar      15.47151974       5.12260023      16.49110145       1.80729873      -8.94959246      68.58833333
Ar       3.30587361       7.80800997       4.45229103      57.88396027      13.53292600     -88.39906319
Ar       9.86046715       6.10624556       1.89751351     -33.59216447      51.50819836      21.41495158
Ar       2.25271030       0.55179726       2.11219505     -14.96498447      10.75832642       1.96395152
Ar       5.17676495       1.40253540       5.16741497     -33.82534640      19.41276517     -45.75163335
Ar      13.60586505       4.91064414       2.64704504     -17.09632451      67.80113368       3.46966912
Ar       1.70027328       9.82591541       9.02237507      78.84610702     -71.40183307      -5.76023099
Ar       5.88142804       6.58402055       1.49705739     -10.97372120      45.43549184      38.68183127
Ar      16.55787317      13.24188393       3.99700322      64.17873499      -9.41661167     -29.35708561
Ar       1.15096578      12.91571676       7.63736403       3.87881479      45.33526226      47.10090977
Ar       4.35872896       5.37842639       6.67041525     -35.12749417       9.53786865       3.37005401
Ar       5.80247971       1.59855486       9.20921452      -4.25658351     -66.08525417      34.95662174
Ar      15.26246731      15.86741307       0.83603281      18.11506157      23.79713323     -40.93215194
Ar       8.19211870      17.38904046      16.64271892      25.26316309     -17.97044156     -13.96645571
Ar       4.17985179       3.48990834      13.68693132     -56.74254426     -47.87203320      38.06104804
Ar      13.48179727      17.73576914      10.63867482      19.66297981      34.32842573     -25.46863566
Ar       2.46333103      16.84881604      14.43248666     -41.86233401      67.02477113      16.42116524
Ar       2.07088718       1.91133994       6.87947253     -43.89106079      -9.25927484     -14.77415006
Ar      11.47298496       5.07064816      15.69894648      -8.60516164     -56.56186736       7.11455000
Ar      12.13213280       4.68401543       7.02737765     -29.94793924     -42.51634209      54.22058316
Ar       9.93894066       6.33371858      12.59703089     -44.73843774      34.77692582     -23.31122278
Ar       7.90902781       3.16201157      11.97859234      -7.73490525      -6.79752685     -15.67880854
Ar       5.79636090      13.73572246      12.93837452      26.81331222       1.37778904      53.41613312
Ar       1.10758380       7.87298375      14.38013960     -50.58708683     -14.62478925      -9.65748840
Ar       2.00432037       4.59691045      16.66764856      17.08949126     -10.98601629      48.55093306
Ar       0.02181666       1.53230092      16.00561688      31.70986089      14.93643557      51.44044335
Ar       7.93120400       3.98360512      15.69307690     -29.00425267      -3.56933984      25.78008501
Ar       9.64645262       0.21539527      10.62967911      14.34911770      -0.59303703      12.72041454
Ar       3.20908978       4.61856089      10.21689068      47.11645959     -26.37726844      17.93547340
Ar      12.01431160       3.85807889      10.58947257      34.24340194      -9.29972520     -24.13476677
Ar      13.53774828       7.08561437      13.59340525      -2.60469383     -12.49834263      31.98595702
Ar       6.63068830      10.20629656      13.21743952     -58.99117387      11.45148438     -70.59629222
Ar       8.24369134       8.00635882      15.76675648       9.83860237       0.73076439      70.95156572
Ar      16.60404520       7.56542006      11.10488185       4.14806473       4.58921524     -13.87808729
Ar       4.71972305       7.21668135      15.57360726      -4.03169278     -55.24385291       4.62469987
Ar       3.50354308       8.68096147      11.95894419      -9.33958973       4.30787741      19.95212024
Ar      15.38688730      10.62843627      15.76699947      18.03971908     -36.73201075      -7.49426055
Ar       0.40918950       4.48362670      13.15381723      33.59666526     -60.31678214      -3.82091680
Ar      13.92024199       1.60109489      16.61275307     -19.27248366     -19.63951880       9.82437765
Ar      15.38819476       3.78159323       9.44108498      31.22355747      48.19754166      18.47420311
Ar      13.02056825      14.83961217       4.27652537     -22.17074955     -11.06520785      22.40062544
Ar       6.51137093      15.47142688       9.93153996     -66.77703645     -10.06163216     -18.02151763
Ar       0.15603379       9.90621584       5.29379312     -28.59241164     -65.71986902      17.02010464
Ar       4.06373331      11.26695254       5.93732484      -3.90660135     -44.23356520     -28.55634563
Ar       1.51672257      10.85682396       0.93777464     -43.67360316     -73.75104657      -5.95153893
Ar       3.89185247      13.22454469       2.75952210     -18.66223045      -2.31986986     -25.48837191
Ar       7.53922475      11.71361287       7.18738300      -1.29906421      50.45145740      27.39119302
Ar       9.57762171       9.93384858       1.46706948      67.83394914     -20.62661913      63.99759371
Ar      16.83087510      17.02520476       4.95978700      16.70555365      37.98908495      31.09010886
Ar       1.86401555      14.67933061       0.19932465      58.01292893     -23.82561512     -31.59814791
Ar      10.82388171       1.93762479      14.09758884     -24.56605767      -3.41202005     -17.68089625
Ar       0.68543672       6.39367235       7.64287986      12.83868018     -46.16728018      13.78309482
Ar      14.67540607       7.73328402       6.68492153      41.62706395      43.79604036     -31.08320826
Ar       9.50716358      14.60544929       7.88324751      49.00587138      99.85672383      45.14031040
Ar       2.86961685      12.14812677      14.60248706      24.42838566      -4.10067914      -4.67972171
Ar       7.48121810       5.52886560       4.89609003     -39.86675686      32.86597465     -37.09414639
Ar      14.68083316      14.50983046       7.75320220     -21.54273561       0.24123701     -16.09060641
Ar       8.43730334      12.83599903      15.49817081       8.65783006      83.21615843     -25.31043774
Ar       8.25063926      13.58901325       2.12142473      22.10582940      27.12211538     -41.21713552
Ar      12.41472946       0.52629605       7.17623082     -13.02103752      42.62129242       8.46814107
Ar      14.04457673      11.19383131       5.67719566      40.58490675      -2.46742297      43.96796084
Ar       3.40704371      15.87420394       7.80158308      43.61663056      17.16255289     -30.10781183
Ar       5.06347849      11.70866209      10.16242324      27.79521308      25.73444437      -7.33337052
Ar       9.23148605      17.13688658       3.15806841      57.75299975      49.72370306      -7.90735951
Ar       5.48693315      10.43365257      -0.45238784       9.21570999       0.50777945       2.00478413
Ar      16.88927584       2.96420628       2.11723749      31.93784257       2.69340359     -24.73789933
Ar      12.71046533       8.49603681       2.88735772       0.18392628     -27.33617349      21.06716450
Ar       5.20378213       8.19448598       8.63164381      21.86648999     -37.33665084     -69.07623214
Ar       5.73234060      14.97654521      16.36023332     -61.05589376     -24.80785476     -39.57077342
Ar       6.39861753      14.98037603       5.52519101      28.95630832     -58.47018214      51.02998956
Ar       9.55965012      15.59883924      13.69309953     -21.72463833       0.03715381      95.65338094
Ar      17.18417835       6.15041437       3.38831393      17.97172467      33.06204822      11.06954088
Ar      17.17522508      14.37439816      14.62808781     -10.38851087      52.06336273      40.37892839
Ar      17.54716216      11.26799676      12.47568564       6.14681307      20.11662105     -26.99215800
Ar       8.66107043       9.01770480       9.21005050      31.44729188       5.04442595     -14.24547456
Ar      13.80010236      10.53043677      12.09594640      12.67150613      30.87704520       7.25671005
Ar      11.78896732      11.13952935       8.89526251     -38.45639777     -59.02310014     -13.32247075
Ar      15.61237730      10.68571917       9.05653696      52.34132250      -3.24429236     -12.08557944
Ar      12.02082942       8.80283410      16.31864776      22.53523740       1.45639498      35.80550726
Ar      11.82939279      15.68538436       0.03459113      15.07638828      64.11140472      28.84322004
Ar      12.72232735      12.79433321      14.87186736      13.33135618     -32.19308496       2.62391695
Ar      15.76620166      14.25972841      11.34698803       8.33698252       0.16323891      32.21691354
Ar      12.77156806       7.38276334      10.12993595     -35.13987669      13.53698228      19.21154539
Ar      12.01398285      14.26958829      11.02953893       7.55129892     -49.39372368      -2.72984308
Ar      10.55733707      10.31931225      13.18594280      -3.80013469     -81.83865102     -34.55651389
Ar      12.94014170      12.30194184       1.55180588      13.84391196      -9.11093693     -63.24389458
Ar      13.79578806      16.22380467      14.08708363     -39.95810636      66.65732040     -22.98706631
Ar       4.63771281       1.44296420      16.66648861     -18.62273612      53.93833846      -8.37635206
Ar      14.27578578       3.27421977      13.38316179     -72.95402817       3.92885634     -55.35013416
Ar      16.56238466      17.71180784      12.75386893      -2.69575854      48.28087279      48.64105738
Ar       2.20356956      14.05762608      11.49997101       9.17572068     -12.25213132     -28.44254110
Ar       6.01952919      -0.06180050      13.47059969      33.93884470      -7.61795659      12.16205117
Ar       2.75619316       0.99624406      10.92053713     -28.50201741     -41.97466389     -59.56214343
Ar      17.18939049      17.58862678       9.31796945      -3.65685888      -8.56737595      29.51918958
Ar       8.39073943      12.50869169      10.78101471     -40.74503760      19.72021820      12.23430596
Ar      10.54507776      11.61411235       5.24725430      -0.46200675     -44.38598007     -42.68513583
