108
Lattice="17.35 0.0 0.0 0.0 17.35 0.0 0.0 0.0 17.35" Properties=species:S:1:pos:R:3:momenta:R:3 pbc="T T T"
Ar       6.35366268       2.90924110       2.95633402      43.30528860      -2.05289155     -17.06839634
Ar       6.37221541       8.73947252       5.29710048     -73.61660669     -36.87712138      44.17019540
Ar      11.39023391       3.76301796       4.31514855      15.85462431       2.82810947     -54.06397447
Ar      10.10896371       8.16898268       6.41686480      42.29149401       8.43578035      17.96761502
Ar       6.42404919       6.63910203      12.30420709       0.37724334      26.56519903      -3.59740595
Ar       5.95111908      16.14372554       2.43052719      -6.11507671      52.00648859      15.41471176
Ar      15.52574228       3.66857330       5.29722119     -51.03319641      30.48979276      38.29069551
Ar      12.92682799       0.29831983       2.87710307      24.60166688     -20.96222986      -8.09118769
Ar      10.02335302       1.79694481       1.28963883     -11.67782765      -1.94244204       7.81731828
Ar       2.50742286       3.36600919       3.86470763      48.27231180      26.76573084     -37.81420013
Ar       8.75723691       4.67497432       9.56008834      -9.03021024     -60.28798652     -34.30878770
Ar       8.89969976       1.26038116       7.84792660      -2.17484802      -2.10649520     -45.30065727
Ar      16.30022027       5.16020035      16.74098265      17.87019982     -31.64744339      46.57129644
Ar       3.31178496       8.22335412       3.32479599     -59.56038152      32.21963591      32.30311375
Ar       9.96257339       5.74609511       1.12240033      23.80318596     -10.82187134      74.54650153
Ar       2.53716606      17.08675854       3.55338415     -24.62607835      17.69161159     -32.11594000
Ar       5.75841373       1.51706795       6.19439248      -2.58699145      33.64118451     -55.12196789
Ar      13.72611948       4.77655593       1.78968383      10.66162422     -35.93567498      -6.58818603
Ar       2.01055843       9.85732128       8.83045818      42.03761517     -13.85244181     -25.16919607
Ar       6.51121618       6.77349007       2.23464208      21.60866034     -37.22736878      -8.82545287
Ar      16.32278940      12.33754293       2.43477373     -28.20510906     -25.04639577      42.08066048
Ar       0.39976397      13.50608746       7.56573943     -29.38655040     -48.65653597      62.51121814
Ar       4.63487928       5.33992729       6.33549197      20.48741272      37.15036797      49.82859778
Ar       5.78846331       2.73872791      10.06169923      30.02450010       7.40850800       4.28323031
Ar      14.62308486      15.08574443      17.14304757     -20.46971432      21.88613270     -58.07167359
Ar       7.80085057      16.57339132      16.39614466      22.86226032      42.90871104     -27.72955173
Ar       4.60852822       4.09027123      14.18310034      52.83769513     -33.26657973     -41.73082517
Ar      13.82061346      -0.04582579       9.86851252      19.49072541     -38.76903764      14.60568433
Ar       2.73076916      16.56587819      14.33988693      55.31908703     -14.27481550       1.01836631
Ar       1.96390005       2.85831236       7.16612543      39.01704582      39.14361590       7.78291875
Ar      12.41480507       4.77839888      15.44645076     -31.99862455      27.33400249     -13.98822156
Ar      12.63565185       4.78986887       7.58281736      36.80260887     -14.42573658      28.28231115
Ar      10.99588018       6.85373740      12.96010277     -22.42290396     -24.12758850      75.60605696
Ar       8.47024726       3.89465201      13.43828235     -37.44038745     -25.84700547      20.29658770
Ar       5.30883315      14.35087115      13.05531186      17.03312506      -9.88779795      17.64564315
Ar       0.85245223       8.36650505      14.94604923     -34.93632263     -25.53153477      37.16124866
Ar       3.34957349       4.90029298       0.41955384      17.82084600       2.82625120     -81.70808642
Ar       0.87483771       2.32991965      15.35987297     -23.16466913     -96.50774214      48.25168568
Ar       7.22403762       3.30003279      16.69640515     -40.64250863      21.58489971     -26.23745929
Ar       9.13293590       0.90661633      11.33016193     -51.24617346     -46.81164538      -1.84468569
Ar       2.64716435       5.34330752       9.77613051      29.73875342       5.71054482     -10.46966706
Ar      11.83516155       3.64659848      11.85144925       2.92999434      45.97343235     -27.56089349
Ar      15.39909213       7.16510349      13.27670065      11.84788554      -3.01420283      43.51034417
Ar       6.20983169      10.60670709      12.94522758     -15.76512344     -54.37944293      16.32045324
Ar       8.11045131       6.86428350      15.41194946      50.22507741      16.17295116      46.95135884
Ar      16.96533920       7.37325811       9.92151886      24.96457051      31.45037350     -19.47035274
Ar       4.35018445       8.59752907      15.99756013      17.27672454     -45.04877642     -41.65028218
Ar       3.39202103       8.54033935      12.21982708      12.60689521      28.92648785      12.82599772
Ar      15.73354788      10.68346641      15.93972162      26.55991820      23.70963884      12.29454606
Ar       1.21042021       5.14366620      13.05006600      13.40322512     -46.25870627      46.00055350
Ar      13.94328076       1.27626327      16.45496269      37.40885385      26.89973632     -34.80967945
Ar      15.50968653       3.22999791       9.42104726      -7.30761261      10.88786548      -0.01606605
Ar      11.76769824      14.33698722       4.46069244     -21.49537168      44.03738643       1.65527609
Ar       6.83726269      15.86986212       9.14078268       4.26965462     -78.12761545     -55.25249313
Ar       0.31075552      10.29931617       5.11087926     -41.27510400      -6.55602262     -26.36428709
Ar       3.72527698      11.07480155       5.74000385     -28.49637328     -12.61234911     -11.25468168
Ar       1.77099702      10.87845614       0.58635997     -64.76473452     -61.25150145      36.56977501
Ar       3.14100336      13.45109605       2.81983167      54.97944715      13.99437119     -22.83537414
Ar       7.57355836      11.86805952       6.92606186      -0.04344310     -33.40451145     -10.11416335
Ar       9.28627817       9.70190314       0.84688894      43.22792560      41.92453694      59.16795537
Ar      16.50428855      15.61433075       4.13843678      10.67409364      42.43295297      24.39044361
Ar       0.87048348      15.62587191       0.28242264     -20.04758699       8.42047965     -39.19506809
Ar      10.58077415       1.07042467      14.90829535      11.86740695     -23.68349368       7.75111683
Ar       1.29892735       7.07676424       6.43480087      44.22270134      28.49227204      -5.85448126
Ar      14.95747841       7.27769322       5.69509925     -15.74584650      -7.70031530       5.87243459
Ar      10.29853630      15.09310279       7.80609297       3.42190646       5.10605484       6.82091975
Ar       2.95384018      11.90569139      14.26305198      22.95108451     -23.77680535     -65.84123070
Ar       8.14642700       5.00485266       5.45397189     -39.42736022     -73.34768342      13.07947724
Ar      14.19277584      14.46651836       7.32149866      -8.86237039      37.45226420     -79.56102045
Ar       7.51962396      12.24446525      15.92440355     -15.58694667     -26.84329318     -18.71777746
Ar       8.82531602      13.82489402       1.83751574       3.32656899      45.27402061      45.32006107
Ar      12.67110464       0.43145974       6.36652175     -38.88870572      73.48259390      81.17464959
Ar      14.04211561      11.37001184       5.26268020      21.58392234      14.32081581     -23.99088458
Ar       2.92610053      16.79798577       9.01803963       7.22728538     -27.01921123       0.80392157
Ar       4.70704211      12.07471051       9.69599444     -32.14040448     -33.67820982      10.15866209
Ar       9.38604840      17.19311852       4.43593372      26.39792104     -18.03182333     -14.71303257
Ar       5.49919610      10.68814053       1.46633606     -14.10968678     -47.43487171     -47.49058363
Ar      16.80904338       1.57025858       1.69888288     -43.73574761      37.91785607      22.62417819
Ar      12.49627395       8.27166076       3.01741401     -23.75898986     -13.44022811     -34.28806014
Ar       5.62981497       8.82306297       8.95652553     -46.23040886       3.35922865      72.54939754
Ar       4.14701008      14.47276238      16.81253405      -0.04284712      -7.74133984      -5.04781069
Ar       6.08758150      14.98502458       5.79743225      55.46593405      17.72789063      30.43632812
Ar       9.63157903      15.19427021      13.30603651      18.18353672      67.65589223      41.37901246
Ar      17.39993408       6.50446297       2.51518575      12.40616344     -28.49968874     -21.42862295
Ar      16.70940577      13.86870894      14.43746937     -14.99407767      37.89236614     -31.69267721
Ar      17.33665573      10.70657404      11.97109285      19.75079861      -4.02039696     -19.76272836
Ar       9.07945559       9.06084858       9.98359357     -69.37837295      21.56165570      -9.34209255
Ar      13.67496418      10.27396479      12.59004021      39.32904626      26.35606448      18.50605756
Ar      11.35557395      11.61545562       8.08028132     -18.44073037      -0.73344087      22.53032927
Ar      15.61791436      10.47387976       8.49474575     -77.46910601      14.26454147      29.35141289
Ar      12.78021416       8.67000200      15.67494849      19.41761658     -39.59776389     -46.47919191
Ar      11.07349120      15.69696042      17.03705312     -39.87379757       5.12261123      -5.91070221
Ar      12.34024031      12.89410796      14.87535147     -57.58135292     -20.46458034     -36.91655198
Ar      15.60411410      13.75858039      10.74049362     -69.34723348     -25.07023330       5.84768313
Ar      13.09811351       7.99671335       9.49565708     -10.61648833      39.56027114     -56.32474859
Ar      11.79443926      14.10181108      10.93206066      29.25724036      -7.76957941     -37.64814666
Ar       9.85232017      10.32154283      13.71034651      24.24833936      19.37966920     -66.08593307
Ar      12.55683373      11.67608338       1.48163451     -41.37588413      -1.68172142      53.27899700
Ar      13.84391302      16.03224382      13.34372883      57.21985270      20.33734850      22.12727997
Ar       3.87001691       1.18043884       0.29717282      39.97047963      13.73753333     -51.97725923
Ar      15.23728439       3.30912679      13.57973330     -30.91024294       2.47465113       1.04590264
Ar      17.12559574      17.08231676      11.85374433      16.71916351      53.38831538     -55.49551393
Ar       1.87947106      13.60304718      10.99034765     -36.21206228      35.57520878      18.69399590
Ar       6.32408755       0.86970418      13.69834033      31.52627425     -26.78989433       2.98831019
Ar       2.37768160       1.95498038      11.72128151      21.14746978      -0.94093846      43.50573729
Ar      16.87189949      17.56773770       7.65722601      21.95571640      52.49692410      66.84138198
Ar       8.26500334      12.80090075      10.76776428      -8.91479339      -8.08811128      26.53355216
Ar      10.15571977      10.97234708       4.35857128      23.08431776      19.51030564     -22.40524526
