108
Lattice="17.35 0.0 0.0 0.0 17.35 0.0 0.0 0.0 17.35" Properties=species:S:1:pos:R:3:momenta:R:3 pbc="T T T"
Ar       7.80285462       5.59776666       8.24373936      16.43607316      21.97986098       0.01701826
Ar       8.08447648       7.38713025       4.99228979      11.26892258     -45.52918859     -20.92034304
Ar      11.05069090       6.64231948       2.64177534     -49.68464130     -33.02873005      -7.82990648
Ar      14.85561481       8.69358024       7.46561826     -46.44825093      59.67985781      55.11756182
Ar       6.37468948       2.95174062      13.00382063     -46.76862068      14.66049677     -24.45130353
Ar       5.54600014       3.23021532       3.27737261     -77.01940473      35.42535141      34.05168783
Ar      16.86587179       0.66812558       4.84802750      34.63179906     -16.47355931     -17.27735748
Ar      13.13369746       1.79492304       6.26745185       0.32793636      77.36447053     -52.29599624
Ar       9.09266820       2.74437933       2.53801683     -38.63098824      23.70083497      -7.95869890
Ar      16.76804495       2.68588324       1.34611304     -21.76444992      33.45085500      44.50538138
Ar      11.00711816       7.68484716       7.91438276     -48.72138236      45.46596161      50.67182440
Ar       5.84145534       2.66811806       9.45322506      60.57443335       0.78918428      39.82762107
Ar      14.54714389       5.96443000       0.94042355     -63.61582122     -29.21590222      11.00159422
Ar       4.19537942       6.58010364       3.41096696     -34.89603697     -26.36235623     -21.33667176
Ar       7.36283516       6.27606851       1.34231331      79.61513719     -53.33752250     -45.61617630
Ar       2.66421967       0.26257022       2.54857780      19.50065164     -41.88064814     -80.10211747
Ar       5.17450791       1.04718003       6.12148225      39.27114724     -45.44398098      18.83453145
Ar      13.18832802       3.26015094       2.74663746      39.51039427      52.38815021     -12.92929159
Ar       4.98304406       8.02061819       7.21175600     -20.34601148     -20.40911139     -45.03041521
Ar       2.90579436       3.74093890       0.33299272      41.46199043      15.01820519      53.28232444
Ar      13.44205617       9.27321558       3.91561079     -51.80627103      -9.17461667       8.00591189
Ar       0.22528937      14.96015902       7.16717100     -43.42330980      31.53636956      32.73003312
Ar       1.40003356       3.67306932       4.10689139     -41.47038637     -15.51740277       0.79143804
Ar       3.97737119       4.53462477       6.68110218      61.84386838       7.25867122       8.26135231
Ar      16.56288241      13.86979618      16.99507655      26.62479476      51.82100156      63.20241485
Ar       7.19001875       3.23055490      16.48613878     -77.92377032      16.81523833      -0.80293726
Ar       3.90526442       0.98656917      14.68502296      25.45216507     -21.35334052     -10.54286650
Ar      11.18596221       4.16680896       9.77899007      30.03397393     -43.73509185     -47.62162603
Ar      15.63246682      15.71955086      13.95043672      -7.00936969     -20.34526974      -2.19455229
Ar       1.25881994       1.39556276       7.92919484     -21.09916974      -7.96495338       8.92886189
Ar      11.45092872       4.16341002      16.88435116     -33.56244425       7.93385342      18.55970691
Ar      10.59153009       4.50969478       5.80099268       5.15312747      -0.68360740     -24.03501380
Ar       8.09128315       7.38521647      11.19807895       2.90903366      45.21567952      -9.28268050
Ar      10.02980611       4.40757781      13.60743864      51.41947145      69.75532461     -55.67100019
Ar       1.79756050      14.69236754      14.29705685      10.00965276     -25.88151210      38.31899731
Ar       1.94624527       8.17650394      13.44051812      25.87974181      63.23572399     -30.77670311
Ar      16.83594502       4.99386012      15.56232108      25.71982687       5.74876874      20.21986050
Ar      -0.76391006       1.42208723      12.80415108     -28.85842362      38.49607453     -21.08456152
Ar       7.35203345       6.80184173      15.01288665     -20.17240684      27.26399499      21.66617708
Ar       9.00355700       0.92899607      11.40590745      17.20568190      19.33621230      -6.24836127
Ar      17.64423070       4.89176946       7.58790472      24.01211303     -62.78178316     -13.85664982
Ar      11.77442205       7.45251689      12.44052750      17.07017340      -2.14928028     -42.66130830
Ar       0.29119262       5.16851845      11.32934451      -6.89539843      -2.06900165     -22.26116365
Ar       7.06599437       9.82260879      -0.54919848      16.51640506       1.19786620     -64.03143446
Ar       3.63618943       5.17824189      14.54316388      49.56303394      22.69695395       0.15378373
Ar      14.46143747       6.15811735      10.23890736      -4.68931272     -19.57364604      40.56466502
Ar       3.98550398       7.67915634      17.17838443      -8.29874003      -9.90733468      24.22688250
Ar       4.48408469       6.02181675      10.95139433      -9.45411427      39.63966386     -23.55758362
Ar      14.51515515       8.58964767      15.04890089     -19.37069679     -14.91618460      15.98548392
Ar       2.58272049       2.45208115      11.49527197      45.25048727       2.16037443      30.93232465
Ar      14.29590972       1.27050096      15.77421686     -66.90878434      27.30151661     -21.60820809
Ar      15.15129762       2.47809098       9.78953995     -24.91165485     -46.94099872     -58.60475987
Ar      11.84123355      17.28176044       3.20898285      -9.05329153     -78.61361221       3.68889089
Ar       7.36238433      12.19138506      11.20253599       4.47767136      72.07959937      88.27510881
Ar       3.73417907      11.08525188       1.45749719     -25.70880516      -2.63857689      47.18262185
Ar       2.24495851      11.27445604       4.81150234     -29.72607882      17.35033634     -18.30598021
Ar       6.87437695      12.69200993       1.67181800     -58.50282366      -5.03674489      -9.34604451
Ar       4.36426778      14.67294500       4.85003310      28.27585705     -58.66078111     -73.50404807
Ar      11.51600619      11.41762939       6.59005024     -71.44143940      29.20255240      -4.50546989
Ar       5.91055886      10.43275890       4.69434965      -9.16997559     -44.75077632       7.83642708
Ar       0.53841533      14.96180076       3.23447088      25.98421443      17.52483295      25.71049938
Ar       3.66955360      14.51254823       0.76267271     -16.13059361      -9.01447124      24.85177266
Ar      10.82048026       0.59605507      15.25837859     -26.67931707      32.15265194     -24.62331205
Ar      14.34381762       6.04690382       5.04801333      91.01921861     -18.38605295      71.31067633
Ar       1.12958540       7.72250834       5.30517806      -1.74065587       2.69071462      -9.20522130
Ar      10.88660651      15.77053006       6.35530639     -35.39559420      13.48195014      25.77876435
Ar       3.43172617      11.48645887      15.19828201      15.88256828      12.72128420     -27.57694264
Ar       7.91738282       9.83972588       8.43890415      25.18743174       8.12632130       3.81216620
Ar      14.21647481      15.06971204       4.68367170       9.09851934      -9.62645224      47.01354120
Ar       9.53641110      15.70591099       0.48914573      46.32082544      13.67951743      36.73975873
Ar       8.03439710      16.67921284       4.16957681       9.28485126     -30.57572243      -9.23758100
Ar       8.69186062       1.50239151       7.15406261     -68.02828902     -13.19407061      -5.89118947
Ar      16.51547644      11.31495608       3.15573223     -10.59901471     -32.16951221      18.40556606
Ar       0.65291390      16.00287952      10.85562003     -14.23608046      19.88556173      42.97576303
Ar       4.92604347      11.99875055       7.86869035      48.70208587      41.87561187      39.52942637
Ar       7.85185852      15.65010728       9.16751743     -51.65672227     -60.50670924      -5.26201492
Ar      10.88561413      13.45363719       3.29111043     -13.30852966      -7.51154460      12.48267668
Ar      15.14145267      16.60047232       1.49374959      85.88727456       9.46316327      27.37600052
Ar       9.07586124      10.16588750       2.64651089      38.15352426     -32.30637359     -44.75663311
Ar       7.79838078      13.35699834       5.90701594     -21.89931742     -40.34053077     -10.62684418
Ar       0.69025142      -0.06138713      16.74635230     -14.68375436     -14.17856893     -55.30695851
Ar       3.61349620      15.61749935       8.49123649     -20.29458169      52.75469829     -32.49809111
Ar       6.46509999      13.38594038      14.50745536      22.56917478      25.53029333     -24.80603961
Ar       0.87056203       6.46546515       1.46249458      52.47397405     -12.44887992      -4.96048009
Ar      17.69366941       9.50326949      16.94324834      41.34728342     -24.30426172     -33.67155153
Ar       1.70819977       8.23497191       9.04710945     -15.22886707      24.44071598      39.00171401
Ar      11.46786485      10.53014668      10.26303234     -56.40848912      22.98072928      31.98706109
Ar      15.19281587       9.66062549      11.41833230      38.62743900     -23.58653515      34.91743790
Ar      15.24168024      12.23234866       6.64449798     -28.54570143       5.53208814      42.81709456
Ar       3.72188487      12.69982808      11.78216668       5.21445739     -15.62853774     -17.61465303
Ar      10.73091777       7.95717908      16.40674148      40.55802155      22.27460433     -50.08032746
Ar      10.00219596      14.11561203      13.88196290      58.61357397     -11.84129515     -24.73009358
Ar      13.10900442      11.90336903      13.53306528     -59.07910727      49.30955096     -45.23647694
Ar      17.44772443      11.54917273      13.24774484      47.76262990     -18.28067577      37.52256681
Ar       1.09637280      12.17636588       9.31581282       4.40497503       4.77125272      20.84900313
Ar      15.21379062      13.63843382      10.69989643      24.92314301       4.04173159      78.45015208
Ar       9.29869499      10.08682161      13.69875747      14.04303712      13.23475124      49.26994183
Ar      10.49303193      11.69800721      16.93287680     -28.74249704     -17.40800256      41.44134797
Ar      12.76920475      14.60642988      16.87162182     -28.38617354      -7.05377546     -40.18733091
Ar       6.25542899      -0.02845112       1.00411291      47.90598998      22.29712569     -19.77115693
Ar      13.99808216       4.40554030      13.38623091      25.42889662     -13.72215334     -12.17651293
Ar      13.02961289       0.28212848      12.35578392      27.32717443     -23.29191714     -58.75368240
Ar       5.49275759       9.25967058      13.14969394     -32.05977392     -29.78165521     -34.61708347
Ar       7.48870662      16.90610301      14.95621642      18.51194767      -1.61432132     -24.78032368
Ar       5.28929407      16.90099561      11.57058257     -10.22386523      12.71430877      -3.49053000
Ar      14.28900873      16.33047696       8.22047427     -13.04209763     -12.88244029       2.91516306
Ar      11.56065814      14.38874658       9.61863225      20.25036047      -8.50710279      34.13243715
Ar      14.14620553      11.12458099       0.40139356     -11.77685897    -114.91538767     -60.01875648
