108
Lattice="17.35 0.0 0.0 0.0 17.35 0.0 0.0 0.0 17.35" Properties=species:S:1:pos:R:3:momenta:R:3 pbc="T T T"
Ar       8.58401585       1.15028717       8.31369808     -32.94547148     -13.69908230      34.56801817
Ar       9.49230011       3.43061006       5.31595498     -29.67730390     -19.42512657     -26.12073129
Ar       9.56920899       6.65472125       3.37920189       0.78019868      14.03257028     -22.58630447
Ar      13.04357064      11.91207430       7.81468803     -12.51366703      94.20259353     -44.15155686
Ar       6.61874259       2.33236970      11.31239888      36.83251950     -48.32716052      26.26915219
Ar       5.37035057       1.77467792       3.49873077     -14.74652948     -19.99833317     -12.86328836
Ar      17.13520319       5.40216694       4.36429512     -25.18197622      15.67152171     -24.65784835
Ar      12.98049281       4.84978668       5.31859347       8.33908451      21.79627391      11.62717962
Ar      11.63837707       2.57738775       2.25077873      42.28295993     -14.07382676      16.36045031
Ar       0.23134471       1.35412811       1.96602758      29.45392605      -4.25561940      27.12185071
Ar      12.32884495       8.03056086       8.22349902     -17.74143125      -1.81716252     -24.53778110
Ar       4.52716797       2.46818506       7.92715671      34.00314137     -36.13919078     -29.80902825
Ar      15.99650980       7.57221715      -0.22848423      18.62971099     -71.20439149      10.90208123
Ar       6.03304473       5.32201271       4.63685596     -48.31070863     -22.44574401     -26.78918810
Ar       7.73142611       3.91499834       1.50569812      15.27711333      -9.35397537     -19.51476847
Ar       1.56517681       1.89912369       5.28561957       1.68694741      34.27264154     -49.17630510
Ar       7.69818218      16.56668269       4.15759534      78.60453864      52.65354621      31.79832487
Ar      14.38267657       4.72993063       1.80330001      10.41485428      -8.69579356     -94.99472909
Ar       6.05946235       8.99445708       9.16290836      65.60127297       4.13245121       3.76080544
Ar       2.14095715       7.85440820       1.70409597     -36.15239300     -70.30488218      44.92678463
Ar      14.38384683       8.54634996       3.50454656       5.71690903      43.84878989      -7.48223149
Ar      13.20661092       0.86233379       9.46088504       4.05451120      18.31828795      43.82327579
Ar       2.84623356       4.51688499       2.86659048      34.13677683     -33.10831709     -55.58407058
Ar       2.56568834       6.12050910       7.35743107      17.28224631      26.74561269     -11.15173352
Ar      14.05531828      15.66690212       2.97280412     -14.29639844     -16.57525346      22.78409992
Ar       4.55879690       4.99161394      16.81589875      38.70369502      -6.65156574     -15.90162856
Ar       3.78855471       2.84618364      13.55081611      22.01996627      -5.76466480      24.73627777
Ar       9.80820035       1.02044638      15.31889468      11.87416091     -19.91338891      55.17822596
Ar      17.24281512       0.74348059      15.36514239       8.90184561       0.59776148     -38.69905873
Ar      17.04357556       3.46305886       7.66340058     -18.43669744     -52.75879115      41.54948056
Ar      10.70455309       4.51813613      16.56332547     -92.97226139      32.02426683     -76.73192639
Ar      10.78931558       4.74357302       8.63805881     -46.67634785     -15.83269071       0.02098891
Ar       7.04985541       5.42383748       8.69308177      30.49951054     -47.38280581      23.97118488
Ar       7.12028537       3.31565642      15.08613038      10.60291911       4.77117269     -37.07204381
Ar       2.72055470      16.17803391      13.24249393     -33.99666810     -38.96702302     -17.92210420
Ar       0.25432619       6.33919197      10.12641433      30.10109254     -33.43434023      23.83595318
Ar      16.05009941       7.50963837      13.37804688      19.74198782      57.26442245      23.83304353
Ar       0.35746912       4.06971218      17.27815147     -24.96836735      20.65923356      37.66564460
Ar       6.65764605       6.27720099      13.03869182      35.64798382      75.05358098       2.10784252
Ar      10.24801402      17.33188503      11.58933095      -4.19693388      45.59048302       3.61874574
Ar      15.63458270       6.93290919       7.18686525     -11.76585587      -8.90466752     -61.45061412
Ar      10.83328133       3.80027857      12.97232872      66.82527415      22.67599528     -40.34653811
Ar      17.20871515       3.83916761      12.71048818     -39.11293140     -14.72343350     -31.20766733
Ar       6.16919046       7.52950970       1.93522631     -81.55073211     -76.60477116      -4.45902680
Ar       1.72650045       6.31250002      14.79273536     -13.82931305      12.24460257     -11.67358376
Ar      13.92425983       5.28979307      10.75545212      32.31709465     -11.62841768      -4.81092982
Ar       4.72524784       8.91640159      15.57342174     -17.02705522      45.05476665     -59.62881709
Ar       3.93316300       4.96461954      10.54201157     -74.00180468     -10.79478188     -36.04230213
Ar      12.37690312       7.44841976      13.69572618     -52.93383933     -72.31628876      44.85904340
Ar       1.73045930       1.29513756      10.52398058      35.97930682     -18.91653219       4.16689947
Ar      14.21660869       4.34790460      14.68764802      48.73685009     -45.80127887     -33.83602142
Ar      13.33176709       1.10518109      13.41728209     -23.26357215       6.90008634      43.17342365
Ar      15.23874500       1.95113269       5.11031133     -27.87412057     100.25236443      28.54570845
Ar       5.56679495      12.41930461       9.86012107      -2.36203757     -48.92498134      27.71106989
Ar       1.60601544      12.36218527       2.73506521     -21.56807313      -9.75794221      34.60626923
Ar      17.57744778      12.47963396       6.77391238      14.66095749      24.67045373     -74.72477853
Ar       5.35811181      11.76283197       2.13600876      54.83677779      10.46726027      -0.93695076
Ar       7.76302291      11.42866636       4.93414868     -20.42256273       9.28142549      79.89855859
Ar      11.32703757      10.01645203       4.69203897      39.38341076      77.69958353      -4.10482424
Ar       8.79014559       7.85893216       6.79068501      27.42774804     -23.14179141     -13.23579881
Ar       0.03682506      15.11994107       0.81686640     -42.08928902      18.29686262      12.15159091
Ar       8.26628929      13.80602584       1.63235106      10.31892255     -49.14508280     -55.37772559
Ar       6.69218525      -0.41949392       0.59354763     -21.34349814     -37.20909723       1.00755452
Ar       0.68731373       9.24390278       4.92170414       6.07963891       7.09269578      -3.33798751
Ar       5.20423113       8.91500857       5.72390813       4.17557751     -10.99628353       5.03082716
Ar      14.49983232      15.24040460       6.48812870      11.49291441      52.38226548      12.09437293
Ar       3.32231804      13.90478895      16.48092225     -20.85664405     -25.48293381      -3.89526249
Ar       9.02848014      11.18541708       8.55409404      32.58865786     -20.26185693      26.95019420
Ar       0.34798993      15.33264521       4.49923644      -2.29772438      62.13824648      -0.47434620
Ar       8.98052794      10.36083460       1.68916432      20.91600399      19.54357535       4.21510651
Ar      11.10108035      16.41037815       1.09972497      23.56954282      53.66502166      -6.65407584
Ar      11.69288814      17.74341698       5.12586792      42.83553055     -53.93379171      68.06183612
Ar      15.32019469      11.93995359       3.97980666     -43.04640872     -36.23596428      13.39752320
Ar       0.36348494      16.29736163       8.32843710     -49.91423528      26.47951182      99.32614979
Ar       4.06179814      12.38271947       5.97544579      85.22277800     -18.22141275      83.95725737
Ar       7.66491156      14.53550501       7.90604424      21.79793718      42.03518888     -29.48285943
Ar      12.06647452      12.85984116       0.93906331      36.53177356      12.68894805      16.43258541
Ar      14.04559744       1.33639176      17.30417983      -5.67843794       9.26308461       6.17089332
Ar      12.31839822       8.99666238       0.40000481     -24.64109798      15.56060080     -23.92048500
Ar      11.09300660      13.78439599       4.59362645       0.20583866     -15.34307875     -56.76348037
Ar       3.58504065      16.02034295       2.85772103     -23.27499228     -41.12860781      20.90796077
Ar       4.85987775      16.30493172       6.47086360      33.10058206      51.39577761     -38.43110226
Ar       6.36922718      17.21234604      13.88446999      43.77770987      10.48106413      38.01124181
Ar       0.94893361      10.34602803      15.91318361     -48.11815399      21.08476569      62.44127131
Ar       0.55190990      10.07800443      11.71689914     -26.39532685      25.50644756      83.49874807
Ar       2.83641940      10.23088528       8.86603831       6.90163163       7.23651863     -20.69874673
Ar       9.52124826       7.83937419      10.68756038      -7.12433452      17.02810177      37.90052447
Ar      14.42300728       9.20362238      10.69378273      49.37783071     -19.54181920     -21.42987389
Ar      15.61689129      12.83667975      10.07602391     -44.95954788      18.54367330     -17.93083631
Ar       4.04026694      11.76716732      13.48432060     -24.49953815      32.16958087     -81.83249569
Ar       8.09355900       7.56435329      16.26437274      -4.53526063      49.10332157     -12.90993813
Ar      10.37538346      10.90330841      14.75100127     -10.81575808      -3.95472703      25.46713391
Ar      14.08007381      10.61368436      14.26208046     -58.72519013      -7.39862130      13.76031578
Ar      -0.33270995      13.49983256      14.01814260      -2.27642700      -7.63410338     -32.47292520
Ar       2.36709801      13.95975085      10.33205273      18.64947596      33.34083074       1.14591713
Ar      16.01108460      16.24664884      11.57430634       5.26142807      14.79505258      14.19853030
Ar       7.31045551      10.28784732      12.63567527      45.97756892      -3.45486046     -13.67833544
Ar       6.96647545      11.98916222      15.98325394      14.90367507     -24.90700961      15.92764325
Ar      14.20930924      15.34059110      16.41455742      12.45239224      22.71992450     -27.66625207
Ar       3.55146503       1.22704589      16.73945621     -47.25830645      23.18222157      18.83830885
Ar      12.38161385      15.07125668      13.14685057     -16.81752551      -5.27740603       3.94696838
Ar       9.74964483      14.49011095      15.50763907     -29.52714100     -48.96853425      40.32664303
Ar       3.67252167       8.00674170      12.26227487      18.51678898     -78.78171600     -27.41537474
Ar       8.41772049      13.90968421      12.00094989       5.29004313      18.02000403      18.12714049
Ar       5.45856999      16.38078313      10.34225976     -17.70860341     -82.64300463      45.80546895
Ar      11.24507708      15.49511854       7.83246265     -55.35095039      13.03159781     -12.19995385
Ar      11.27264723      11.54981368      11.38198795      -6.63492478      -5.81448554     -16.41846616
Ar      15.39275832      11.42356457       0.51206786      -8.88716527       0.31178097     -47.32538864
