108
Lattice="17.35 0.0 0.0 0.0 17.35 0.0 0.0 0.0 17.35" Properties=species:S:1:pos:R:3:momenta:R:3 pbc="T T T"
Ar       6.87007249       1.95976847       8.80302642      41.28778510      48.00284070      28.13218753
Ar       7.28430086       4.99495645       6.12536825      20.35690789     -66.68764338      74.48846179
Ar       8.86718831       5.73276963       2.97632603      19.53567255      18.92600810      19.90645218
Ar      13.48618325       8.94776327       7.26656533     -20.60810345     -44.94886178     -41.84060684
Ar       7.44573245       3.99928010      11.79149968     -32.06991440     -30.21645499      19.36905104
Ar       5.21766868       2.72152099       3.65170600     -16.76027624     -16.48128745     -25.49042455
Ar      16.04598373       3.90231499       4.21957410      -6.78548135      39.56137701       5.93201830
Ar      13.88280965       4.90390723       6.81847912     -38.27756096      11.57763229      15.66666938
Ar      10.85437196       3.39894873       5.05240453     -12.58917483       3.48168554      -9.55953480
Ar      16.45003546       4.36084538       0.25250984       9.69705813     -37.23101349       1.48860805
Ar      10.27640826       7.28713844       6.54708736      34.00389006       4.38070089     -10.15225698
Ar       3.08475389       2.31305704       6.79082321       6.02146855     -15.68393451     -34.20105899
Ar      14.18749997       7.47176681      16.76793513       6.29621004      -5.72907302      -5.70354808
Ar       5.21622659       6.97177222       2.87916721      42.08357618      49.18952728       2.56331294
Ar       8.93147626       2.39424518       1.88254177     -30.24965119      38.69597837     -34.97000800
Ar       1.20725163      17.16446924       4.62450723      25.39943332     -64.18035955      60.08934831
Ar       8.46679642       0.79445487       5.49562849     -11.10623209      -5.95210095       0.53460360
Ar      12.59186215       4.82395521       1.85114639      98.56912648       5.60452827     -96.56236574
Ar       5.23093989       8.40480544       7.13530368      11.64632071     -61.27178360      13.47899756
Ar       2.63074749       6.67381434      16.89531518      -4.90857883     -38.65404518       4.09983701
Ar      13.83134652       7.37483298       3.93223307      -2.76659252     -99.72141933      -8.16398017
Ar      14.94423934      14.95639613       8.51498387     -37.64320852       9.38593071     -27.78032832
Ar       2.37180609       3.91950279       1.97390712     106.69538705     -45.70192078      54.94773729
Ar       2.63946000       5.98567352       5.66270204      73.81793751     -65.92419565      50.57097665
Ar      15.57075409       0.79558525       2.31555713      -9.67962155      22.52874351      43.29700563
Ar       5.90373723       4.48747950       0.15428886      19.87193926      10.54179585      42.70584766
Ar       5.50304301       1.58139530      13.90948178     -18.64599576      13.05946185      53.75117882
Ar      10.97949727       2.83363266      11.60569512      -8.70634940     -34.59771694     -24.80177612
Ar      16.33271624       0.55328638      15.84915564     -14.30642274      16.73343512     -10.26256887
Ar      -0.11609901       3.30796847       7.98943669     -98.47870269     -24.28827449     -40.50700841
Ar       9.86828536       4.90444020      16.57583514     -13.69763922      31.49094079      84.25806742
Ar      10.21317447       4.35805625       8.68915298      62.06638522      33.53080620      55.33007761
Ar       7.67072220       7.01352759       9.66143857     -30.15663818      42.14173300      37.29884017
Ar       8.61802670       0.74351654      15.86983116     -76.91934020     -46.09057312     -12.05826057
Ar       2.55940360      16.28968335      14.87245291     -37.18215828      40.82383831      32.36847286
Ar       0.87732464       6.25968722       9.99333930      22.93344768     -34.18737361      -3.32743889
Ar      16.86121682       6.33993438      14.29224936      21.24792809      -4.33279006     -30.46540396
Ar       2.03008166       2.71139165      15.72377494      -3.59167266     -65.76872079      33.55947626
Ar       7.04611073       6.72606075      14.22789701      -4.42303174       5.17907345     -24.12853880
Ar       8.40024296      -0.02528100      12.34978364       3.22087195     -36.27991805     -70.26000639
Ar      16.68241599       7.47648774       6.68771801       5.81733648      37.33274581     -54.67386604
Ar      10.31850296       6.42015902      12.42632284      40.36340324     -64.97902242     -46.34261625
Ar      16.60231844       3.00353121      12.58151445      17.92170464     -34.10305562     -38.91633239
Ar       7.15389369       8.69117971       0.39615885     -17.45303727     -26.21704427     -42.81339897
Ar       3.41802119       5.44406487      13.41343627      46.64710812      -0.76284009     -29.08553029
Ar      13.67443180       5.65252666      10.37729581      36.32942042     -29.74842852     -21.17555963
Ar       4.39344925       9.95759908      15.50898758       5.61204321      28.64307329      12.83676262
Ar       4.44605614       5.06005871       8.83282153     -61.68778512     -52.01000521      42.76791341
Ar      13.46168341       8.00537113      13.05622892      24.90826514     -32.79290627     -42.32828832
Ar       3.31714692       2.13622905      10.72672907       6.40191054      53.98581302     -39.71314184
Ar      13.38067994       4.33479302      14.06279032     -97.68296211      -8.82850846      35.17782531
Ar      14.57027918       1.62592687       9.74671847       0.69642462      54.68870074       1.74210496
Ar      15.25124678       0.71984606       5.97438603      26.06357774       8.48554302      66.62010381
Ar       4.87531024      11.80863895       9.17430210      37.64772484      10.65305760     -12.33143705
Ar       3.02623842      14.07922518       3.41521920      -5.18586543      -8.52625183      -6.45029114
Ar      16.65113648      11.76890076       8.08703187      20.64481927       3.84330074     -49.80020878
Ar       4.93280114      10.91629669       2.25649994     -14.99244871      -2.63820435     -27.26562939
Ar       5.60102541      12.58542795       5.59763395     -50.70737879      33.09528673      37.97279618
Ar      11.82173568      10.50372689       4.37437884      -5.28160621      15.95107257     -42.07896404
Ar       7.92230478       9.53514530       4.41214230      -4.95567236      20.80034469     -28.45994043
Ar      15.95450745      14.44848620       0.64038827       7.53894122      -6.67839435     -29.21514509
Ar       6.53135676      15.23700525       2.77361792      21.00082264      64.30607019       7.95703892
Ar      10.23248789      15.80362564       1.09299443     -64.16272618       5.97851126     -10.79413414
Ar       0.75895369       7.09225579       2.84304303      21.05069579     -52.56675679      24.73027233
Ar       2.43383697      10.17494089       4.69723574     -59.46621322      14.64952762       5.59323745
Ar      12.19546141      12.46345045       7.35581713     -65.56214998     -41.90723074     -19.84256944
Ar       4.09737191      13.82875907      16.99753843      20.71436543      -2.72566234      -6.80245503
Ar       8.38519009      10.89254040       7.92750291     -37.86592568     -22.67840458     -50.61501957
Ar      16.75089169      14.02138758       4.78311722       2.92367376      19.96700307      -4.53531087
Ar       8.49238276      11.97184216       1.74355787     -37.98761154      -9.76939899      65.17922523
Ar      12.31761329       0.01064494       3.67194671       8.10633265     -13.73773362     -13.79830264
Ar      10.18418170       0.71577045       8.65337956     -18.06860033     -37.48336336      76.09031532
Ar      15.83336780      10.27054254       4.36096211       1.04251668      19.53463466      -9.56568697
Ar       1.10060844      16.93353878       8.16689887      10.37095888      19.61416712      25.97838729
Ar       2.35695698      13.59921979       7.09006886      12.36492300      14.22435831     -63.33577695
Ar       7.58774208      15.08278131       7.85650010      30.04710904      36.99556813     -11.91863048
Ar      12.97425095      13.79215921       3.59594211      37.82995295      39.37333615     -16.20218219
Ar      12.56775742       1.30010974      16.94849765      31.11584249      38.19479231       6.96413327
Ar      11.27107492       8.35471519       1.39835414      33.60445098     -20.28535024     -30.75931563
Ar       9.48576122      13.76314532       4.74166380      40.09017610      -9.26610521      28.91532384
Ar       1.69381719       0.20508725       0.99290487     -33.85746961      33.48889255      -8.59695825
Ar       4.91435544      16.59622340       5.79544642      36.23683659       4.57286592     -45.43833165
Ar       6.41762220      15.20092217      14.50430328       2.30576669      27.30176182      -3.82682155
Ar       0.10191221       9.33788618      17.33268878     -16.05963673       2.74108821      53.71229515
Ar       1.30811902       9.29384475      13.23249732      36.64408502     -12.42079814      38.64165720
Ar       2.14833391       9.62864829       8.84433172     -13.90874339     -29.70615613      16.83720975
Ar      11.86313700       9.49990324      10.19883607      45.31158162     -15.74134578     -22.27895890
Ar      15.88791267       9.13833439      10.22867429      -3.72310782      29.22707398     -69.93542715
Ar      14.86545104      12.65035472      11.52140275     -27.33171715     -10.85806823      84.23290185
Ar       4.83238855      12.03844439      12.69756261      47.53696074      12.46680831     -23.19996526
Ar      10.72000093       8.87358994      15.11536450     -45.52262724     -35.79278956       2.75416525
Ar      11.37878947      12.46036566      16.87107609      14.57023768      52.78873741      -1.69207622
Ar      14.87705034      10.87914049      15.08636919      -5.65970228      60.49957761     -68.53869244
Ar       1.23684063      12.59665332      14.76802724     -26.67543849     -14.66290492      30.41771137
Ar       1.58593726      13.20518821      10.69269327      19.48169956      35.56492642      37.61214412
Ar      16.97019858      15.76593331      12.45136517     -29.19515974      -8.24110959       7.01337058
Ar       8.40643635       9.93853351      11.93700076      36.88404437       6.96901542      55.89405387
Ar       7.74362703      11.99580256      15.09471760     -19.59773581       6.04641599       9.16526533
Ar      14.17038062      14.84373138      14.73842450     -13.30510172     -34.86121484     -26.65888673
Ar       5.10819610       0.17673150       0.17229659      40.15739407      68.32222942     -94.59600542
Ar      13.44365460       0.35685094      12.95795819     -17.81379970       3.60061468     -21.13753394
Ar      10.02047202      14.89942390      14.64550331     -19.07959874      18.61839320     -29.54837221
Ar       4.72948526       8.55597276      11.65995623      39.08769872      16.80088943       3.93664007
Ar       8.03072339      13.39891166      11.46475878      -2.00710743      15.51153372      54.88163596
Ar       4.60876435      15.42118267      11.07508500     -36.50900246      26.75766590      -3.97322755
Ar      11.98559056      15.30435620      10.95695470     -51.19682390      32.66365375      96.38125783
Ar      11.69973103      11.81920375      13.09657668     -21.68924649     -14.81609206      -9.16272840
Ar      13.99145167      10.80955784       1.14235422     -36.07780230      59.63951917      23.79585742
