108
Lattice="17.35 0.0 0.0 0.0 17.35 0.0 0.0 0.0 17.35" Properties=species:S:1:pos:R:3:momenta:R:3 pbc="T T T"
Ar       8.35769699       2.92853570       4.60015256     -49.34698284     -12.33119332      -9.59494786
Ar       8.44566760       8.64663676       5.07366827     -28.38330799      24.36796525       6.94423286
Ar      11.26267487       5.11153620       3.94744041      11.82987500       1.33463506     -45.72307105
Ar      12.12329074       8.21568769       6.08754988      15.73873312      -1.26789298      79.65368340
Ar       5.91311407       5.42672926      11.65317704     -70.27671137     -29.63154100       7.35140913
Ar       6.31294837      -0.28677548       3.35678676      58.24260657     -14.31031959      -6.28353352
Ar      16.55223812       1.99023130       5.62132238      41.36859398      33.64937782      21.37578589
Ar      14.38389357       2.78099233       2.45613396     -26.13349684      -8.84844714      -3.22372937
Ar      10.73345450       2.04435008       1.89055833      59.48716988     -30.19468477       5.46352414
Ar      17.74308112       4.07658506       1.62069292      29.94165082      -8.96182235       8.95901649
Ar      13.24154948       5.19442407      10.16554571      -5.56623067      10.95220177      16.93826509
Ar      11.04534706       1.64171843       8.66693363      86.36424390      21.32932766     -43.97602332
Ar      15.11363778       4.82070999      16.90941204      -1.30558615     -10.32795138     -22.12723282
Ar       4.17801104       9.29137811       3.68672025     -28.41936383      82.00188835     -31.86720629
Ar       8.25484252       5.48056860       1.85710751      -7.66554266      27.55621152      43.80283087
Ar       2.71569959       2.13441582       4.19008871      47.89965497       5.46922540     -71.70476677
Ar       5.18603253       0.59008380       6.62283882     -36.49802103     -52.74686434      25.63577577
Ar      14.52115265       6.90296333       2.80029815       1.75581745     -14.30701124      10.21819961
Ar       1.57057996       9.19127494       7.02095860      -7.20599883     -47.74850493      -0.33237540
Ar       4.61817690       5.67062951       2.23739151      20.56036025      18.08556423      -1.58123168
Ar      14.20636977      10.59788953       1.39989023      40.28902439      -5.82777165      41.21894823
Ar       0.11761463      12.47492259       7.47132621     -37.53945302      66.46120444     -39.78031802
Ar       4.59268933       5.84387517       5.94943586       6.36283469       8.86259689      34.33647954
Ar       6.13308336       3.48139205       8.69126487     -64.43859540      43.73225817     -58.00033856
Ar      13.86984153      14.39444229       0.07760112      12.40946192       0.57763749      -1.53745829
Ar       7.27776921       1.09762573      17.16833656      24.97482814      -8.32774556      -5.29546010
Ar       4.35210876       3.02226323      14.03394428     -42.08896615     -46.57124386      39.78007607
Ar      14.66232481       1.96760127       8.56171910      -0.56153293       4.16050294     -37.31455001
Ar      16.81152802      14.89051806      14.80039345     -21.12775055     -10.10332501      29.86814862
Ar       2.37456948       3.06912859       7.84666461      18.05829763       2.87345368     -27.15260039
Ar      11.69696518       5.35036856       0.20511374      -0.42104043     -62.26717708     -32.67179294
Ar      14.35715780       5.06259871       6.38634040      39.68861421      70.46650032      68.04872239
Ar       9.41772630       7.05304994      12.25897715       5.41709858      19.58688526     -33.61871488
Ar       9.19618248       3.11327826      11.60623393      24.78393840     -47.12207944      26.60676235
Ar       5.52774262      14.28748330      11.79320278      31.24052622       4.59531542      48.28135538
Ar      16.86915525       8.48044293      14.91593926      40.19277589      12.98594354      13.56188677
Ar       1.58243247       5.75217331      15.57140129      28.66949501     -44.85817155      37.59359989
Ar      16.60407295       1.85793248      14.78770593     -15.85942482     -40.47295801     -36.26783680
Ar       8.62904463       4.28755697      15.73399370     -11.33000807     -39.35402181      30.99761755
Ar      10.44051341      16.47850075      11.39297417     -49.58265770     -55.30317115      20.67490250
Ar       3.31953312       6.62898064       9.57756392     -31.53605781      16.77578755     -31.37607367
Ar      11.99111114       4.65735038      14.00550628     -64.05183265      -4.18283774      49.86919136
Ar      15.69768796       5.52544197      12.99343944     -49.89983694     -40.93429479      59.06612471
Ar       5.98952264      11.32651277      14.56228506      27.97349627      -8.05626360     -43.92766085
Ar       5.44601652       6.42732363      15.14996386      44.15557222      48.27778400      16.81750559
Ar      16.77463757       4.74317440       8.84412414     -10.43989933      -1.98793539     -29.19538122
Ar       2.60996029       9.76612556      16.24775252     -38.07769383     -44.78695178       8.20875860
Ar       2.97007866       8.58348719      12.95812904      82.18055270      -6.04615245      10.79672830
Ar      13.32539778       8.36212730      16.00042279     -18.16255677      52.04650573     -41.52616929
Ar       1.66065742       4.18031817      11.65125172       0.10826463     -14.83609614       9.96415155
Ar      13.17453108       0.96062468      16.72679039      61.72008475     -19.62595361     -13.77064016
Ar      17.51871060       0.63947959      10.96914985      -1.57756605      17.06798820     -42.36994650
Ar      13.07036277      16.51555495       2.72211393      45.51699774     -24.71257414      55.04437376
Ar       7.47575762      17.41315325       9.60830050      -9.64234147     -46.52528887     -16.84869469
Ar       1.30454572      11.96724205       4.06738357      32.49069129      10.91090364     -38.24014540
Ar       6.15922707      10.86772121       7.23955625     -18.03418472     -23.51754976     -22.90642322
Ar       4.45584306      12.23344559       0.99423388      53.39286546      -9.76217447      12.06692510
Ar       3.90233133      14.48901679       4.78331279     -32.38842324      26.82960411      42.52606758
Ar      10.44896317      11.83032521       6.18146856     -38.62797492      16.67135001     -40.54759107
Ar       6.20393709       8.61170205       0.70056455     -21.97582261     -12.71895003      21.11365615
Ar       0.12194384      15.51163725       4.30792772     -42.31717250     -27.68869672      23.16326164
Ar       3.52588117      16.09512129       1.28470565     -39.15498919     -26.86707527     -12.49983038
Ar      10.08647604       0.74811381      14.41075987      16.44039999     -14.51296127      13.28072930
Ar       0.65367269       5.82269926       5.23885005      16.04041027     -49.85178183     -63.89555623
Ar      15.60968559       9.97283122       5.02907589     -34.74030903     -51.69623326      75.13689036
Ar      11.21914241      15.34345282       7.41962832     -40.63793993      29.62310365      -9.28979532
Ar       2.83934056      13.56569803      14.03337078     -15.20633586      64.31167856     -48.56982087
Ar      10.70322612       4.85906288       7.60460837      59.67170954      24.27240850     -27.83087963
Ar      14.63410084      16.17901270       6.52995941      38.80621534      21.29459109     -20.16019918
Ar       5.56951486      15.01601682      15.81363833     -30.00234969      51.50678611      33.64569783
Ar       9.77617103      16.96863658       4.35518172      41.77457289     -38.70761203     -21.20626842
Ar      12.46302913       1.81969418       5.47958712     -27.55585465      13.39765375     -57.63240790
Ar      14.69538430      13.14534304       3.88749668      50.07411115     -31.03015308     -26.33156062
Ar       0.84734816      14.49826722      10.80517122       6.34664419      18.69162927      -5.88122682
Ar       5.81086401       9.14255085      10.95672431      -2.69050687       1.65017570      53.65689583
Ar       7.23132316      14.95938010       6.56866020      18.13299021      21.22882355      -5.29413683
Ar       6.99810590      11.87691501       3.81206888      -1.74168328      43.95094381     -31.39666284
Ar      17.27731663       0.54498251       0.89486814      -9.36556360     -27.28968618      29.86599589
Ar      10.20821291       9.07152150       1.27632029     -32.87555092     -11.60674949      43.05619211
Ar       7.62202649       6.96073440       8.40340815     -12.58777154      33.33746276       9.41523883
Ar       2.26819890      17.18347308      13.78323252      45.25023958      30.39555482      18.36644030
Ar       4.11411022      13.94619862       8.44995146       4.71278755     -11.18848885     -38.91911209
Ar       8.85034319      14.34840799      13.74883928     -13.93364859      53.35563026       0.23060571
Ar       0.65032550       8.63218985       2.20271656      31.06027169     -21.27663618      30.27439854
Ar       0.18234737      12.32247641       0.35206815     -36.36439726     -33.47916039     -71.38636443
Ar      -0.10016610       7.75809385      10.91303778     -43.66642647       5.81514000      61.88060656
Ar      10.75938346       9.04347007       9.30822517      15.40170994      36.47139122      -8.26814554
Ar      13.17778819       9.15248909      12.08268312       0.33516692       6.66558488      33.16774340
Ar      13.63309672      12.11941212       7.90976879     -43.58709123     -18.05324423     -27.35738767
Ar      15.88965977      11.34988757      10.93065497     -68.98097174     -25.94779131      -8.18529018
Ar       8.61998281       8.93701688      15.25969378      10.14298405      56.48628738       0.37725796
Ar      10.09887850      15.75148326       0.50011630     -26.97373128       7.34264835      -2.76123634
Ar      11.28038150      11.73159919      16.19652883      12.22285350       0.18507121     -35.29064577
Ar      15.01553651      11.59885736      14.84159931     -45.92571259     -61.66705073     -40.27842248
Ar      14.72958501       8.24601229       8.35302714      14.20650871       4.14623789      30.87335606
Ar      12.34590081      12.80491374      11.64919381     -49.76508229     -45.83420639     -43.67494370
Ar       9.21288194      10.88555208      12.21548685      14.85234409      20.03723168      13.93506125
Ar       8.01161140      12.27803841      17.57009869     -24.87154859      44.95184579     -27.64911743
Ar      13.12282732      15.38233937      13.88414792      44.03212493      78.94754736     -29.50874100
Ar       3.79483029       2.31071602       0.09702835      12.24595447      28.99589121     -39.20494963
Ar      13.22312320       1.43628941      12.43391757     -35.55720369      41.37482276      45.86070765
Ar      14.01272622      15.66611986      10.32132991      46.06458259      -8.00146604       8.60199367
Ar       2.44797647      10.94776331      10.28809828      -8.76685439     -78.61735182      76.99516494
Ar       6.48419160      17.56351802      13.37233900     -48.34044431     -24.72660297     -20.60679681
Ar       3.52650565      -0.08944870      10.29080272       5.56821209      34.67368466       8.22808966
Ar       1.00837798      16.66147201       7.61790870      52.90552992      13.33484108     -12.06365696
Ar       8.65592660      13.24817287       9.75369486      37.40092831     -17.32902590      -6.42036242
Ar      10.68632106      13.29814573       2.82383448     -12.72937690      39.87560915      57.52839892
