108
Lattice="17.35 0.0 0.0 0.0 17.35 0.0 0.0 0.0 17.35" Properties=species:S:1:pos:R:3:momenta:R:3 pbc="T T T"
Ar       7.87551061       1.39909257       7.79348151     -34.08506702      -2.17887340       3.08656507
Ar       7.20244081       5.22821434       6.69994467      83.75586786      -5.06225428     -43.47446661
Ar       8.24380161       5.78145705       2.29639024     -10.12612867      10.75968474     -10.60165492
Ar      13.70604162       9.87929971       7.62074411       0.93139389     -27.26733998       5.14795822
Ar       7.46498417       3.84350088      10.89365202      -8.21814530     -30.63985463     -26.35789084
Ar       5.99141487       3.11096869       3.15162503      17.28550907      -2.47718244      42.36514742
Ar      16.37374236       3.84764581       4.80013518      20.23029581     -56.78454302      -2.78347376
Ar      13.17483194       3.75249022       6.20162840       7.64484392      32.27425928     -13.96133487
Ar       9.54132898       3.10205207       4.68240688      -4.09866474     -14.26498723     -17.42051345
Ar      16.27416790       3.04202203       0.23530859       4.29962627      38.84718859      25.20333062
Ar      10.77624141       7.64508230       6.77318796     -10.09612329      13.69275261     -20.24677799
Ar       3.10956097       2.55819418       6.23550892      21.98196545     -19.26217788      33.78025321
Ar      14.49375032       6.52929291       0.41516378     -48.66245566     -11.64679768     -52.35208816
Ar       4.69591919       6.99590030       3.18344460      39.09125344      32.20076745     -64.10269023
Ar       8.72003401       0.71056267       1.08877888       8.62959788     -16.29971535     -91.99867866
Ar       1.20142749       0.43533811       4.13073030      13.98765524      40.06824098      19.26878010
Ar       7.69733136      17.02289835       4.67599565     -42.45966638      28.86889963     -40.97317329
Ar      12.29612904       4.34663929       2.05185737      34.55007147      40.69850895      27.40757271
Ar       4.85610250       8.48496263       8.00471174      18.07020035     -20.23082101      13.51023031
Ar       3.03858956       6.76492383      17.08128640      22.42145677      31.96571281      19.04449421
Ar      13.83134212       7.01011063       4.16987274      25.81903708      -5.93555414     -10.12436039
Ar      14.75277802      16.20704756       8.87354918      -0.47119032       3.01535205     -24.90285569
Ar       2.33918463       4.08789623       2.53977221      -6.38139261     -28.43792055     -30.03145373
Ar       1.86935317       6.15140439       6.14000539     -24.11637930      25.70804156      83.74686235
Ar      14.91869588      16.77156589       1.84800946      31.31473492     -41.09590326      13.44369032
Ar       6.12757263       4.45598155      17.01683267     -48.82728482      -4.00610952       6.03328812
Ar       5.18935784       2.66788863      14.03031283      17.05994591      19.45365367      12.54141914
Ar      11.13085606       3.39902890      12.10687233     -32.26936189     -15.23335273       3.20810251
Ar      16.35309781      16.89487788      15.58175576     -34.39708254     -49.15471157     -70.45647240
Ar       0.27880934       3.06376557       8.64662071     -28.17876076      41.10389475      -9.90079166
Ar      10.79769868       4.90201751      16.16121476       1.75696261      64.12715947     -24.15950269
Ar      10.39875047       3.98765063       8.51882298     -17.84290939      21.41534798     -78.13758101
Ar       8.21760617       8.02059720       9.29309842      61.16008305      19.70856224     -58.75363558
Ar       8.99460179       1.86207612      14.75657750      76.86058953       5.89557405      65.47836781
Ar       3.21155705      17.06302285      14.42826032      -4.19925847      19.49221073     -56.01889486
Ar       0.60882849       6.39801107      10.78454198      -8.83979576     -35.73882603      -0.56990157
Ar       0.19557614       7.54491288      14.79885406     -20.05364371     -15.52444201     -54.03800434
Ar       2.53563639       2.94840644      16.41097148       2.16271653     -17.78919494      20.77692470
Ar       6.44344546       6.30800007      13.23977875       7.37645699      -5.35044920      -9.03823695
Ar       9.39635436       0.39225763      11.09193129     -39.30689353     -39.26801591      10.42120510
Ar      15.71657184       6.54788962       7.42031567     -34.68207024     -76.75525286      -1.00938530
Ar       9.87505435       6.92794759      12.40182995      13.73494159      11.85306568      55.27443569
Ar       0.11714885       3.15005224      12.94866095      16.82372670      -0.58867876     -49.97521125
Ar       6.80127985       8.16279387      17.15825799      53.75115773      57.29681304     -15.97932196
Ar       2.92143780       5.40432352      13.46801559      43.32563716      -6.39104140       1.67383560
Ar      13.01566991       6.31229845      10.23167908      26.46832023      35.25047772     -70.51670358
Ar       4.09520029      10.01384630      14.76573782      -9.45054761       0.05049076      -6.67401219
Ar       3.65388587       5.09923711       9.26234415     -44.19999250      -5.54817905     -95.23297057
Ar      13.32452589       7.29057566      14.32946712     -54.36757825     -38.97031744     -79.44508028
Ar       2.99718874       1.91833405      11.04122143     -57.77657697       9.04200022      26.47740393
Ar      13.92652479       3.66809997      14.57696601      21.93167245      37.65150887      67.60263136
Ar      14.49208797       2.68054304      10.44789127      74.39055058      21.38378323      -8.17487026
Ar      14.83764579       0.55671955       5.55083764      -7.52340342     -43.08938503     -38.48192168
Ar       5.50335433      12.42208786       9.22498711      -9.45687672      26.23312391      29.87855036
Ar       2.74135986      12.77762693       3.26298852      39.23099377     -33.82546016     -23.78500241
Ar      16.14871416      12.56022522       8.59631159      -5.85494685      39.48186212     -28.15044788
Ar       5.12401397      11.16401038       1.18610912      27.10701607      52.71795594      87.80675945
Ar       6.60087535      12.66989219       5.47804023      25.47129984      -6.50134252       6.62441379
Ar      11.68338434      10.31396838       4.28479498     -25.76158796     -81.52816498      -4.93105187
Ar       7.53548625       8.92413077       5.00953130      32.23939803      50.52353156     -17.88830704
Ar      16.44984961      12.88273332       1.41984489     -13.99362291     -91.92502953      -3.94785482
Ar       6.08233774      14.50809630       2.19995188     -33.81323665      14.87644625     -36.94995576
Ar       9.81136468      14.55451038       0.97864766     -27.01948254       7.36945367     -30.70561703
Ar       0.69615859       7.46240739       2.73326653     -40.34776531       1.26341458     -10.94668833
Ar       3.48302216       9.90430138       5.03982181      25.97152012      -5.48734132     -34.52501315
Ar      13.41123263      13.69865212       6.36440709      -5.20719231     -72.43341841      54.80513159
Ar       4.42552689      13.83939786      16.23888665      -4.90976758     -10.00918682     113.77609255
Ar       8.82773040      11.44381956       8.14325660     -14.96753601      34.55335948     -17.12027684
Ar      16.56352783      14.67979790       4.70130380     -36.72905248     -22.11162698      15.42516574
Ar       8.60810417      11.17545677       2.18403839     -58.36770269      19.91152097      17.19110483
Ar      11.52102755      17.07721712       3.43001528     -32.13157125     -23.88450689      31.78918507
Ar      11.63027069       0.29981969       7.47745084     -32.11927346      73.51007721      37.45710099
Ar      16.88691028      10.82203296       5.03000776     -19.23015987     -17.50590062      73.93941260
Ar       1.18573945      16.81482574       7.84367739      59.20648648     -49.77851187      68.86208224
Ar       2.10148505      13.12128082       6.98568770      16.36495806      19.57476002      14.70291115
Ar       8.05813396      15.32114574       8.09461197       3.58863588      -3.72108088       4.84527246
Ar      13.03828862      13.57530988       2.79754204      72.10697422     -91.66913491      45.29045433
Ar      12.28528995       0.98927260      17.00817928      34.68071978     -23.03806142      -5.56683726
Ar      11.02893871       7.92936072       1.39989793     -14.15667053      65.76542179      21.04751790
Ar      10.06025476      13.78238268       5.12623224      -3.93799470       5.82424304      37.46530365
Ar       2.07591186      16.31029055       0.66019957     -68.88127367     -30.11108880     -31.99977902
Ar       4.55943582      16.03701114       5.93746366      46.38836793      30.12687931       2.25778607
Ar       6.39801034      16.32320552      13.22741795      -5.22410402      72.09299660      28.11119154
Ar       1.65653628      10.12269641       0.33236296      55.75868774     -14.80798836      56.74362101
Ar       0.66957826      10.82711095      13.16479943     -18.55616154      31.67616638       4.72915555
Ar       1.01956976       9.25483799       8.40394570      33.91837429     -13.19602728      -2.88797992
Ar      11.01428523      10.13029425      11.00380025     -51.20322581     -41.93687204     -57.27157521
Ar      15.46254331       9.17966641      10.91308230      21.92582787      10.71127522      -9.82338573
Ar      15.09160656      14.11227818      13.08476837      -3.75159061     -31.85430015     -28.35314889
Ar       4.86944822      12.97843195      12.73970659      -7.04253785       0.10652970     -59.16052925
Ar       9.91320825       8.87717742      15.41005163      -1.03282907     -37.64334327      -2.03215373
Ar      11.85340153      11.16642536       0.24146735     -27.35373921      37.87730872      34.98127478
Ar      14.85674429      10.82061878      15.21417156      25.80631797      -6.12411999     -21.65876180
Ar       0.90311579      13.86386357      14.93680787      25.20132476      28.30378678      69.45599970
Ar       1.99102596      13.06007353      10.61125606      30.45205499       0.79461605      -9.73863471
Ar      17.07619767      16.88260859      11.66270512       6.92699023     -12.10108118      12.06643481
Ar       7.41193095       9.77640220      12.44415378     -44.54848342      12.11540882      -5.55469355
Ar       8.03474301      12.35601528      15.72937302     -20.72425277     -26.38101799      -9.25119135
Ar      13.35833797      14.54872521      16.15146740     -52.73682632     -27.51974639     -17.72621465
Ar       5.12688458       0.48164382       0.25583722      14.55742709      30.48588728      -1.79895348
Ar      13.00267560      17.14568214      12.46096583     -15.04129420      73.76019247      43.96540022
Ar      10.17574038      15.60995847      14.24177666     -31.91766895     -40.87468807     -31.46610189
Ar       3.33932008       9.60217757      11.17068252      18.33650152      12.41768096      26.78734805
Ar       8.72313161      13.06805355      12.05593589      -5.40019695     -38.96564952      25.11618400
Ar       4.42572748      16.29423195       9.83370156      -1.70569547      18.49490293      29.19895665
Ar      12.22828662      13.90188998      10.36497363      32.38920906       8.05997835     115.09967289
Ar      11.50449249      11.97563163      13.88317193     -17.45124487      23.09065635      26.03705360
Ar      15.05326490       9.69067420       1.93018644     -33.23941845      26.38318412     -11.81496975
