108
Lattice="17.35 0.0 0.0 0.0 17.35 0.0 0.0 0.0 17.35" Properties=species:S:1:pos:R:3:momenta:R:3 pbc="T T T"
Ar       6.58011998      -0.24082351       8.28182686       0.37768351     -42.74055836       3.04833692
Ar       7.64531063       2.45579048       5.63382889     -29.15202447       7.49126406      30.23950214
Ar       8.70642573       6.16604184       5.12575310     -94.29324631      28.98676416     -36.55842087
Ar      13.61146743      13.71064025       6.83227736     -17.41413131     -43.02294272      -8.46573418
Ar       5.62520818       2.86406838      10.43123919     -53.60726555      49.42457197     -11.50493058
Ar       5.03712345       0.06529456       4.30955970     -49.94823394      40.26849163     -54.46487519
Ar      17.03441526       4.95641862       3.16643827      15.32051287      -6.64362812      31.13636981
Ar      12.43819412       6.70713667       3.39005063      -1.28824505      46.78278273      25.29093495
Ar      10.10235558       3.06706844       3.11067067      47.35992359     -20.92115054     -34.48304992
Ar      16.68178523       1.41329937       1.16640903      17.96596748      47.73011075     -20.93251473
Ar      13.83369374       9.83057992      10.64907503     -38.40683137     -42.98910522      19.06140455
Ar       3.51420821       2.04759004       7.10107145     -37.92273306      -5.17669408     -30.39555453
Ar      15.82361264       6.45578530      17.25597615     -45.34888013     -65.19249569      40.01045760
Ar       5.47345623       6.29193332       7.22870709       0.10367178      -8.77905905      26.10617079
Ar       6.36985480       3.47569168       2.31369888      44.95457978       3.44216487     -36.16973555
Ar      17.38842338       2.10966098       5.98678666      18.55399892      36.90468890      -2.78900060
Ar       8.40846874      16.49246075       5.05653708      16.26498957      19.04477784      21.55463520
Ar      13.16213078       2.93271488       0.66122805     -33.32684242     -64.05978972     -49.43020284
Ar       7.23429519       7.69056668       9.89077814       2.28602895      21.74343094       8.46586287
Ar       2.74942047       6.23179591       1.49176669     -72.65441496     -20.52505927      17.63974838
Ar      15.63674545       8.88505619       3.22873769      83.05723577     -89.31369822    -102.36400519
Ar      11.84848630       2.51443215      11.15881433     -54.28389409      27.68944803      21.46612559
Ar       2.53670071       2.43375997       2.71687702     -80.73634468      26.10111655      10.71690296
Ar       2.17624652       5.64349255       5.46410395      38.55809718     -40.88809904      19.05007792
Ar      15.16918669      15.82125184       2.34711450       8.68281827      54.53250997      20.44013147
Ar       5.71868257       5.83243157      16.40058731     -29.03547134      15.40232779       5.00853766
Ar       3.80071421       2.00998244      13.49253467      27.64881250      36.53020702     -40.70258975
Ar      10.94037738       1.77659884      15.29956130      74.08429176       2.43297014     -18.30583791
Ar      15.02554210      -0.11713524      15.61515741      -7.88661440     -43.05207444     -40.94424938
Ar      14.97030229       3.39366145       8.60660939      74.86469329      23.57898859      33.94731630
Ar      10.74741523       6.11202430      16.70536256      77.15242758     -25.19096026      -8.93493975
Ar      11.33463501       5.00378031       6.40289755      25.15643740     -26.74294790      18.28195514
Ar       9.03759138       3.89753539       9.36919690     -40.92657442       0.52018434      -1.72658039
Ar       7.01657566       2.50902430      15.11822765     -22.03152716      38.05914109      17.32806033
Ar       1.07390735      17.30489938      13.46154315      54.79635024      20.64361964     -27.94566571
Ar      16.96094516       7.17558894       9.76317533       8.17383873     -32.63349226      34.49135662
Ar      16.64413290       6.43895854      13.72770247      55.83183288     -32.49330175      35.19722280
Ar      17.52005988       3.12831836      15.19006437      31.89547578      54.78675117      10.05176267
Ar       6.84710326       7.58973928      13.27921880     -35.61753376     -38.90757190      -4.76802651
Ar       8.32223328       0.82600627      11.72589877      -6.19996821     -17.72312407      39.17414548
Ar      14.57984605       6.91329884       6.34698796     -43.16133222      41.67679453      -1.78299191
Ar       9.49676289       4.80265065      12.97373081      27.64229641      53.50381377     -23.54792747
Ar      17.91900684       4.03566330      11.57442617      14.11594787      -6.88886049      21.10131902
Ar       5.60024334       7.18767771       3.30741947      77.32461313      -9.81645921     -51.13350614
Ar       3.90749111       5.92424987      12.71949534       1.08595531     -96.76520202     -41.03055266
Ar      12.43170179       5.95380374       9.80469043     -16.43008198     100.92736475      18.00087914
Ar       4.35352595       9.52884831      16.88133280      57.92631854      52.76345148      11.52617860
Ar       2.84156194       5.40006343       9.38454942     -75.20707477     -30.17032760     -42.13990094
Ar      13.08911095       6.86793076      13.34756008      -3.77025945     -29.29756793      40.63519628
Ar       0.91020985       0.05109195       9.58747383     -26.40585906     -56.27297829      44.76396314
Ar      14.09137627       3.37255945      13.84532074      -2.29108720     -57.80665250      21.27286245
Ar      12.14382426      16.69449800      12.98849357     129.82517730      -2.34100949     -16.75152341
Ar      14.13650606       3.00531883       4.55434237      69.15111018      91.05519686     -16.43154586
Ar       7.90711371      11.05511493      10.69021523      15.07065341      72.02198318      28.81271844
Ar       2.55262988      12.17566765       2.77365558      35.56346199     -49.25805815     -82.61080209
Ar       2.25987397      12.36597555       6.71868134      -0.09688099      16.58088718      18.46257485
Ar       6.33653625      10.80623655       2.41471072     -98.78104815      13.93068214      49.13746097
Ar       6.86770564       9.88608454       6.51959457      22.00382152      50.62276989     -38.46410177
Ar      13.03436611      10.19733939       5.72619077       2.84325474      48.98564265      79.91429775
Ar      10.71772822       8.47592643       7.90875634      -7.29654989     -62.25434126      34.09584486
Ar       1.25136602      15.69708397      -0.57455287     -51.80604369      86.39604841      10.78702043
Ar       9.13341586      14.29745252       2.33714258      36.97382393     -26.33294257     -10.51447793
Ar       7.64131104       0.31944172       1.03522849     -39.16884891     -58.20830047     -22.00848614
Ar       0.81901354       9.57029201       0.98510321      61.94796885     -47.70259937       8.81843369
Ar       3.26461778       9.24839590       5.00734669       4.09779996     -48.77180873      10.10391861
Ar      13.81991160      -0.03603495       7.98066256      36.67771413      50.13071307     -41.05256957
Ar       2.47018682      12.26231643      15.89359263       2.42474217     -39.65516689     -90.45909079
Ar      10.99613646      11.91700641       9.26349431       1.03705517       5.80893026      50.78008772
Ar       1.33214990      15.98554719       3.53615318      50.09985658     -72.72475197       4.07985013
Ar       9.78843721      10.21259203       3.55447018      -9.55756609     -56.27843741     -60.92151982
Ar      12.00473898      16.35616378       4.34628485      35.65871906     -34.74956796      18.45740931
Ar      10.67676293       1.73776886       6.81310423      21.38923884      20.40631019      32.43779494
Ar      16.45717281      12.55476945       4.08771377      24.67482416     -19.17908592     -50.97621393
Ar      16.76305788      15.54226966       6.47908653      46.88010262      43.77499840      11.49490795
Ar       5.44216778      13.63240532       4.98783493      37.06341807       2.38594909     -61.68497904
Ar       5.96353054      13.73638815       8.70111746     -32.30742557     -42.21045163      16.26532408
Ar      12.94408188      12.94767010       2.51145205     -40.69667009      20.80838493      -9.00416136
Ar      11.57939205      16.22182851       0.01377455     -46.80494601      47.54889718     -83.95153158
Ar      13.67108998       9.69955535       0.24050927     -19.34682782      54.69369114     -33.50251019
Ar       9.40651372      12.78108707       6.15617614     -48.73146333     -33.00271880      61.31287188
Ar       4.78337546      14.97264296       1.59058939     -31.41839520      -8.28861765     -69.16045457
Ar       3.12273627      15.87126687       7.39454240     -44.37350971      40.87586557      19.53225076
Ar       6.25105153      16.23041953      14.94146965       0.07664064      -3.28707229       9.29135325
Ar       1.78154153       8.68066926      14.48938530     -23.90598068     -11.56749755      -6.03615535
Ar       0.10105541      10.25858300      11.69153159       3.11388830     -19.43024641      53.43092253
Ar       3.69487632       9.33658490       8.93762161      34.00254641     -13.06004590      -9.94111985
Ar      10.26514089       8.58691197      11.92506836      31.27969123      52.33342928       9.93499013
Ar      17.35183528       9.31077153       6.83630086      26.44805910      14.30479427     -24.71645671
Ar      16.35091798      12.42507668       8.66510323     -23.01636569      27.00761432      25.35634962
Ar       5.95571066      13.54024687      12.62991075      18.68250395      11.96621777     -12.70748713
Ar       7.98261769       8.34475344      17.19456432      -2.47087076       3.34655702      16.88343035
Ar      10.28970839      11.90108021      17.35244487     -24.84666843     -28.57485903      70.53881780
Ar      15.05542859      10.71743083      14.26468794      -4.48128881      13.00528841     -18.01104896
Ar      16.08994448      14.50014703      13.34809651     -19.56701360     -21.71340291      71.88136083
Ar       2.77568135      12.89980830      10.60844566      51.44366616     -15.46280227      18.40299519
Ar      15.42328894      17.93504506      11.74888795      28.67333477      -4.18549853     -39.31887765
Ar       8.06106980      10.77205470      14.36424790     -80.80972140      28.70821300     -24.29595939
Ar       6.49691583      12.89512894      16.52435963     -60.37653315     -67.72051883      10.69027452
Ar      13.56395791      13.47439145      15.81231051      -5.30342947      19.88683386     -21.94978124
Ar       4.33843095       0.97009269      -0.27135819      74.15126874     -29.78600902     -88.33832520
Ar      13.63262152      14.48858279      10.48092755     -43.13020033       2.41944046      82.45197053
Ar       9.48285247      14.55056611      14.73350243      44.71374816      21.97936440     -31.30264811
Ar       4.53071835      10.10019868      12.50565026      52.07254997      21.70369758       2.23619952
Ar       9.10318207      14.62608254      10.90702157     -84.20905879       5.43321418      25.88148698
Ar       4.07486689      16.95333134      10.96640888     -21.89208180     -37.36004140     -10.99515936
Ar      10.61727618      15.73616596       7.76190065     -49.85030048      67.42887126      99.93799453
Ar      11.38125506      11.80608823      12.90649124    -140.35676525      40.00971826      74.64463455
Ar      16.22842526      12.58991517       0.47208545      72.72348624     -39.40828789      -5.43518381
