108
Lattice="17.35 0.0 0.0 0.0 17.35 0.0 0.0 0.0 17.35" Properties=species:S:1:pos:R:3:momenta:R:3 pbc="T T T"
Ar       8.13165126       3.98865487       8.46011579      39.36425437      27.16267810      53.10595738
Ar       7.50802231       6.59231333       6.01042778     -35.77014147      -2.42131639     -31.36310767
Ar       9.01808159       6.42265181       2.68509414     -34.02373371     -59.56929525      16.75823151
Ar      13.06893447       9.42726287       7.49574276      -4.59046452     -54.90746795     -40.61329356
Ar       7.44377528       4.01416224      12.01032821     -56.91998871      55.35928831      26.38635779
Ar       6.83542133       3.40341461       4.28594786     -17.27985311     -50.04597765       3.12475046
Ar      -0.15410556       3.79416603       5.06525169     -26.10417688      -1.84549653      26.31005212
Ar      14.35560656       4.40131562       7.75340472      -2.36047318      36.96411603     -59.57627270
Ar      11.01946548       4.31352117       5.41507915     -14.69163258      46.53409453      61.48336828
Ar      16.93978970       3.48469637       1.23021176     -12.20671088      41.97664021     -76.12603775
Ar      10.29940917       8.74976782       5.15046821       6.78679811      21.05619053     -22.02458924
Ar       4.97229391       1.53465271       7.29983273      16.52759218       7.23127665      16.15493377
Ar      15.55344000       7.23727479       1.03437571     -29.09960023     -75.04985241     -47.35278434
Ar       5.39294002       6.93176288       2.73604727       3.09275996      15.86744738      35.48788063
Ar       9.54855270       2.58884998       1.56794656      30.64122611       5.59602609     -16.19714246
Ar      17.55749270      17.12362997       4.64408403      14.66855723      31.08149097      12.35868482
Ar       6.56322394      16.84750830       4.32350935     -40.32240562      23.30430583      32.06793580
Ar      13.54529674       3.22199030       2.90765300       5.37736569     -37.51052775      -1.27383534
Ar       5.90859495       9.05726312       8.12700189     -20.50184609      33.29242123     -35.72752668
Ar       3.41898511       4.14186547       0.86271781     -27.03038983      -6.73839484       4.63730656
Ar      13.80970772       6.61235666       4.36023864       5.69717287     -25.59069638     -21.93397083
Ar      15.57888797      15.15933929       7.18508129      75.19989794     -16.82242985      27.12338837
Ar       3.23343136       1.37685505       3.63912825      68.51753672      22.68691661      32.71767764
Ar       3.21380520       5.38327528       5.66110882      35.77753397     -26.75222071     -40.29226386
Ar      14.88016843      16.70685608       2.21607195     -30.73618436     -20.96821641     -41.01107222
Ar       6.73857340       4.44437784      16.98012663      22.43846772    -105.72535670      20.02372907
Ar       5.95356536       1.46262994      14.70927842       3.74890177      13.60579725      33.65823349
Ar      10.92743433       2.66842845      10.13291023      15.72441117     -29.84179169      21.31740186
Ar      15.93937381      17.29095171      14.84670806      10.47758907       0.99728101     -60.13563223
Ar       0.74442642       2.92809377       8.25834260     -20.59074226      28.34080465     -82.01977971
Ar      12.19235112       4.41861815      17.06146564      40.30406008      44.95746352     -13.11673136
Ar      11.26592444       6.22395621       8.42800525     -15.02084637      63.28936921       2.86551021
Ar       8.02331163       7.75178282      10.77918731     -12.96369923      43.78924615       5.67451765
Ar       9.34408911       2.66812213      14.78741888      11.43958388     -25.40770853      55.48422347
Ar       2.56873297      16.35891431      13.26491742     -13.45707229       2.62388343     -50.10028983
Ar       0.94721871       6.43390053      11.55611696      -0.47638096     -21.53497479      75.47061591
Ar       0.98075467       6.26052091      16.17652199       2.87471362      38.00953267      47.47688392
Ar       1.77337359       2.28992784      15.13434625       5.41355839     -15.01528304      17.38515601
Ar       8.30399686       7.48202395      14.61377760      -0.80954904     -45.03912945      40.68447197
Ar       7.84154615      17.97797586      10.53383770     -29.76615064      25.59831569      45.35388445
Ar      17.31986354       7.28923876       6.26998975       4.01969632      16.65417246       3.31923766
Ar      11.57635669       5.59185088      13.03270051     -10.79054475      53.90855502      44.87856966
Ar      17.27290087       2.27344727      11.99328632      25.48807522      67.07679363     -37.84085915
Ar       7.91978524       9.49107100       0.80292276     -23.94333766     -58.13900750      12.97892702
Ar       3.81073564       4.97290039      14.07321546       1.94804471       1.82439180     -18.48404503
Ar      14.77729384       4.87834596      11.66052198     -15.92368724      -2.56308917     -15.42265510
Ar       4.73202174       7.76878697      16.58811557      -2.23325850      35.68740697      56.36020009
Ar       4.79518978       5.64377075       9.23453064     -11.86799759      12.01173407     -35.54463303
Ar      14.91942392       7.78504183      14.24949825       1.65403420      22.24684896      18.08570695
Ar       4.06423789       1.92472569      11.02507010      -5.07710948     -25.57011210      14.93835615
Ar      15.33383755       3.98098561      15.40256516      28.94181595      23.68839477       2.32867177
Ar      14.26565475       1.28619415       9.39215158     -11.57369083       3.51043361      54.60237811
Ar      13.72376418       0.83311506       5.62489904     -45.39407314     -30.10453633      29.06701189
Ar       6.31758072      12.16471234       9.72883460     -22.17083272     -19.19870925      22.68127232
Ar       1.07912413      13.31236357       4.32693202     -19.45055007     -54.19147217      23.93994721
Ar      16.22683834      11.14690982       6.96591914      20.69077573     -12.39669634      50.94543406
Ar       4.33001603      10.61702907       2.02009375       1.32326566      34.10361233     -25.30602345
Ar       5.54754378      12.92486862       5.03219134      24.43593050     -15.10391180     -22.56887074
Ar      13.28895402      10.11380185       3.92679158      12.99763927     -39.67373700      -0.55103593
Ar       6.82399075       9.61412624       4.43571276     -12.16734621      10.85625061     -17.78870568
Ar      16.64149679      13.34069476       1.13078178     -31.80771619     -12.58430685       0.58360133
Ar       3.87929681      15.05071129       2.20085913      18.14222675      39.34527948      47.32611112
Ar       8.98078962      16.16742152       0.24104820      78.60210929     -66.07692437     -12.79832878
Ar       1.54079247       7.41140370       2.67823481     -37.96341756     -75.57387398     -14.35818122
Ar       2.73839287       9.86574315       5.66802563      -1.99983953     -22.58783387     -12.68083281
Ar      11.84520968      14.86839136       6.21105767       8.42777163      62.26284797       2.66893044
Ar       2.67626025      12.90933979      16.64329888     -23.86802482     -13.85025689     -12.09381236
Ar       9.74486294      12.06368089       8.98842230     -23.86892150      24.73882537     -30.35878110
Ar      14.59230755      13.58206339       3.87532752     -54.40658690      16.90014887     -63.23642716
Ar       7.45277374      13.22096493       1.83022740      52.96719785     -14.84721644      -9.06356502
Ar      10.96174188      -0.16471895       3.31698688     -11.26345610      40.71668186      39.31869058
Ar       9.61649369       0.93917483       6.64117094      -1.74263293      13.54007004     -66.43579704
Ar      16.73193103      10.24591922       3.26610930      60.97406954     -38.58167992      -8.25943093
Ar       0.87832503      16.36712711       9.76399554       7.78458616     -17.55273103      77.86091092
Ar       2.17858172      12.80372753       8.10878445     -13.99585915      15.12683444     -28.04920573
Ar       7.87395822      15.23107354       7.33152956      20.66721346       4.90795160      52.86190205
Ar      12.09448770      14.33784920       1.19597182     -40.75482306     -25.84972696     -46.89647812
Ar      12.41280661       0.67353466      17.00441131      -5.62626881      45.54230727      28.90075417
Ar      11.90560230       8.18169981       0.90152324      34.51398088     -14.64370636      81.30490586
Ar      10.26719974      12.38314422       4.62835731      23.56065065      17.76351699     -11.65065786
Ar       1.22662112      16.87411713       0.84322613      39.12498036      17.73605190    -110.59788123
Ar       3.46822063      15.68638704       6.07976282     -25.15684732      78.41604866       4.66024104
Ar       5.77421162      15.10772977      16.12429421     -37.44486136     -29.94800462       6.18921163
Ar       0.93019807       9.59229657      17.44524216       9.86250740     -56.01491644     -15.46981432
Ar       0.72758905      10.07451872      13.85564224     -17.33766620      43.21068403     -17.87441518
Ar       1.39482037       9.50518095       9.46799022      11.66123661       4.84303386      -1.94385161
Ar      11.39307115       9.10330949      11.45962869      35.01326124      -4.42871743     -15.10763248
Ar      15.21921690       8.21053486      10.33969663      -2.26869936      31.07849761     -15.51814480
Ar      13.43942870      13.14914560       9.09422639      13.14508989     -35.35576463     -53.33267841
Ar       3.35921783      12.89783776      12.01329972      27.15151475      -4.46454983      70.95330565
Ar      11.66189180       9.47986445      15.00022220     -23.31931662      12.76979693     -38.31760274
Ar       9.30576430      12.97327360      15.76392951    -104.44190159     -52.76821035       9.43707837
Ar      14.43912740      11.11767052      13.29653432     -48.75466685       3.23585612      47.06703208
Ar      -0.00506847      13.91112218      14.12869674     -29.38680118      51.39972282     -41.49963238
Ar      -0.34429261      12.15036487      10.97662806      50.16926660     -14.92583721     -34.81728931
Ar      15.08830603      15.67440532      11.37265941     -50.65027686      -6.26287155      26.61591022
Ar       8.12026305      11.04722421      12.74935220     -76.08267392      19.96619984      -4.78796586
Ar       5.70270437      11.21590418      15.76473422      16.91455058       2.23112568     -11.22685636
Ar      13.39231913      14.03168390      15.06226946       3.73532747     -18.35258183     -37.96048192
Ar       6.19679305       0.97614908       1.02428490      19.14145851       3.39891749      -2.41889036
Ar      12.99716927       1.47857898      13.03922045      33.32842579      11.75451212       7.42862163
Ar       9.95867599      16.36216117      13.84961230      41.66384199      19.43415356     -40.28077713
Ar       4.47517816       8.99559086      12.60576951      82.65625958      35.68144464      11.58941805
Ar       6.68042303      14.85224533      12.56700338      26.53496353     -43.87995023      15.14396571
Ar       4.82046204      15.69796910       9.37591981      30.45793916     -26.29300131     -34.46315227
Ar      10.77900776      15.69626105      10.12089015      28.49160645     -20.57134302      36.72484086
Ar      11.45941230      12.59326572      12.45451956     -15.13697888      -8.90523406     -36.98676429
Ar      14.74951104      10.73850254      17.03543290      -7.67058771     -24.84704226      26.98418895
