108
Lattice="17.35 0.0 0.0 0.0 17.35 0.0 0.0 0.0 17.35" Properties=species:S:1:pos:R:3:momenta:R:3 pbc="T T T"
Ar       0.71760216       9.29273160       7.79223603      -0.03927562       0.02932426      -0.00133644
Ar       6.77846345       4.26536813       7.25929347       0.07328722      -0.02129020      -0.05772783
Ar       8.36030652      14.72544812       7.19754784      -0.07327112       0.05497511       0.00631708
Ar       2.27463482       3.33346330       8.56517171       0.05684774       0.05247747      -0.06108847
Ar       9.43530303       3.63637244      15.40497190       0.11953990      -0.02078490      -0.06733756
Ar       8.23805949       8.04419856       9.25916460       0.01331278       0.05812173      -0.03535578
Ar      15.18617472       2.75496294       0.66220083      -0.06520952      -0.05793031       0.02848931
Ar      13.01209638       3.65823502       6.68654382      -0.03235250       0.06508120      -0.04846507
Ar       9.78637578       7.30591109       6.12053760       0.01474780       0.04799385       0.11134141
Ar      12.93579437       6.71602879       4.17163395       0.03508194       0.05162792       0.11578387
Ar       1.64153157      13.18570933      11.02639932      -0.02364721       0.04228158      -0.11452527
Ar      15.23943429      14.94636117      10.26563267       0.04225458       0.02086409       0.00569212
Ar       3.95340478       9.59339306       4.91713344      -0.08221119      -0.01488049      -0.00821098
Ar       4.73575813       3.23653598       4.20642531       0.00936992      -0.00150012       0.01250515
Ar       5.63344178       5.78811640      11.73408816       0.02632300      -0.01413393      -0.06180285
Ar       6.68333912       5.10630428       0.43051005      -0.03860146       0.01187848      -0.02102475
Ar       0.52048561       1.49988527       1.97307802       0.01205916       0.07395647       0.03246180
Ar       8.56588071       6.62079793       2.86636683       0.00108497       0.14297377      -0.02800860
Ar       8.38446141       3.34124521      11.75816222       0.06663891      -0.00317033      -0.02174514
Ar      17.07262880      10.92178968       4.42223862       0.05098623      -0.07228167      -0.09002375
Ar      11.76839313      16.87369298       7.02145804      -0.00421581       0.03700474       0.06865255
Ar       4.74615406      13.98361728       7.95222545      -0.04494535       0.05521893       0.02134550
Ar       0.59234416      16.46122025      13.01808479      -0.07566061       0.03465279       0.04221233
Ar       5.88026600       9.15908380       1.79394383      -0.00521385       0.00419738       0.02339760
Ar      11.84764885       3.87040685       1.08592821      -0.04768557      -0.03952066      -0.01132681
Ar       5.82565351       3.01878129      14.84827412       0.03628207      -0.06528099       0.01922985
Ar       7.77850437       0.78760636      16.84301638       0.03974870       0.02644676       0.02626196
Ar      10.01542174      15.64729400      15.41558538      -0.15295439      -0.02681517       0.13412061
Ar      15.85048828      13.47006937       6.66588807      -0.03005331      -0.02362810       0.06917790
Ar       8.04148787      15.36281742      10.78892913      -0.02118938      -0.04539573      -0.04594910
Ar       4.96422819       8.15545072      15.48751729      -0.04056804      -0.04818181      -0.03347372
Ar      13.91565461      15.99806415      14.36478534       0.03291877      -0.03441520      -0.11457709
Ar       7.36773657      10.25892070       6.45356491       0.11301773       0.02044881      -0.07498474
Ar      12.20635733       6.62547785       8.92851161      -0.05447027      -0.05224111       0.01840083
Ar      11.63679239       6.45574156      15.82103998      -0.06924083      -0.12916321      -0.12832618
Ar       8.65753348       7.96570614      16.78515485      -0.08972499      -0.04385517      -0.04941342
Ar       2.18532960       5.74376873       5.87492006       0.07378399      -0.00021012       0.13026890
Ar      10.69553565       0.57662199      12.48175094       0.07266381       0.12138254      -0.02964295
Ar       8.41974662       0.90523142       8.56478391      -0.05965458       0.09248213       0.05403996
Ar      17.00709327       1.03812885       9.95012804      -0.00147802      -0.01252420       0.02124302
Ar      15.96121488       3.90518208       4.40690225      -0.01331309      -0.08116845       0.00470446
Ar       9.83757889      14.70611766       3.89778230      -0.04718885       0.04757930      -0.02661301
Ar       3.67444570      16.46108307      11.13923984       0.07757113       0.03661835      -0.01434773
Ar       6.85676572      11.20439286      16.10527825      -0.01372261      -0.04439551       0.01804806
Ar      14.39385821       9.79170983       6.20448338       0.03480516       0.00326454      -0.03301375
Ar      15.86432184      16.56121212       0.26187582      -0.07573706      -0.00407882       0.04665419
Ar       3.67814593       9.78077822      12.52760425       0.01340060       0.02209507      -0.03976371
Ar       3.11903815       5.32335434      14.92906802       0.00976895       0.07395631       0.13810036
Ar       4.11105373      16.39269229      14.85005843      -0.09557477       0.00266309      -0.06039210
Ar       5.35707722       2.43668678      10.53391159      -0.06542767      -0.05707230      -0.00760031
Ar      15.61779253       3.70745675      11.38853546       0.00726375      -0.03093624       0.06301620
Ar       1.74915077       2.84072130      12.23846106      -0.01633847       0.09651064      -0.05913103
Ar       5.64468538       6.57212292       4.92142019      -0.08864138       0.00379775      -0.03376160
Ar      14.21500499      11.29379698       9.60394716       0.03016446      -0.04498183       0.06167667
Ar       2.87704648      11.95476258       2.59174017       0.03424597      -0.05047428      -0.04577144
Ar       4.20686076       7.54029288       8.40370736       0.02494965      -0.06725015       0.02059394
Ar       1.78578595       8.74275829       1.17627146       0.12566765       0.08180424       0.02478166
Ar       1.17217864       1.57781538      15.72518561      -0.03927937      -0.04302304      -0.03485147
Ar      16.23362716       7.26110373       3.61004591      -0.01800763      -0.05764661       0.02963054
Ar      11.10753841      10.84554431       8.08287273       0.04959258      -0.00995704      -0.06949368
Ar      14.28026969      12.71737977      12.85984433      -0.08441186      -0.01158601       0.07820527
Ar      16.62810496      15.65679690       4.14154554      -0.04319668       0.04749751       0.00556029
Ar       2.56669665       4.92486500       1.39959107       0.05229494      -0.06776577      -0.01672851
Ar      13.67095318      16.94992346       3.71665607       0.09543782      -0.04114770       0.08522635
Ar       2.02872135       6.90059745      11.14372844      -0.02262044      -0.04169113      -0.11217288
Ar       7.74480703      11.42720491       9.84425226       0.05855393       0.06673596      -0.06740327
Ar       3.13308993      16.13486679       3.81708457       0.03517679       0.03995540       0.04369101
Ar       7.87828138       0.49036766       4.79247478      -0.03304539       0.00384007       0.00822325
Ar       5.62581736      15.51772717       1.45484843       0.10068249       0.04566431      -0.04967496
Ar      17.32921659      13.18349904      14.39145318      -0.01825318      -0.02217304      -0.06657887
Ar       4.86885062      17.33203333       6.69994375       0.04025029       0.01596054      -0.13428918
Ar      10.21360744       3.83081459       8.89311884      -0.00113639      -0.04486424      -0.03976959
Ar      14.01417904       8.02541743      12.21964214      -0.06659833      -0.05190154       0.05516195
Ar      12.32274134      13.22241934       5.81264041      -0.06448917       0.00276459      -0.06435584
Ar      10.35041612       0.56060918       2.47382899      -0.01190785      -0.00954670      -0.02275142
Ar      11.52339917      14.23994665       9.25158358      -0.04933787      -0.07237273       0.03917922
Ar       6.70189092      12.99998952       4.06530482       0.02687472       0.06042794       0.07205369
Ar       3.30029148      11.97533791      15.89694154      -0.04629933      -0.13098994       0.05270780
Ar       2.18259396      15.24178650       0.61898201       0.03657892       0.03653810       0.01670104
Ar      12.32076653      15.21007985       0.94811980       0.05634514       0.05882174      -0.01476335
Ar      17.15785195      11.51657961       0.54237605      -0.04841033       0.03361261       0.03256316
Ar       1.35244681       1.49031960       5.57243783      -0.02757388      -0.06963680      -0.04463130
Ar      11.15015141      10.67409358      11.62012081      -0.01191859      -0.10649557      -0.04413933
Ar       0.08401985       9.94640006      11.38129821       0.00437927       0.00190939       0.03455540
Ar      10.71871281      10.36021821       4.49972404       0.04863127      -0.01316999       0.01783693
Ar       4.98488995      12.96557808      12.34863173       0.08007580      -0.01934521       0.05667527
Ar      15.96949901       5.81699701      14.32626265       0.06916415       0.06254258       0.04260297
Ar       1.93929347      13.37173623       5.74713091      -0.02497370      -0.12925257      -0.01400237
Ar       7.61887477       9.21194092      12.71873800       0.03879982       0.08709898       0.03297832
Ar       7.08485776       0.37035100      12.94723076       0.07694975      -0.03907268       0.05315032
Ar      12.27954768       4.12227037      12.61361209      -0.00186999      -0.07820971       0.01642987
Ar      14.26002415      12.97880216      16.63540237      -0.02486761       0.04387628       0.02713279
Ar       1.35535080      15.93623687       8.37041712       0.00509680       0.01743807       0.02738831
Ar      15.24124506       0.76853476       6.76754268       0.10573443       0.11450361      -0.00482142
Ar      15.54051332       1.74146287      14.39720408      -0.04300571      -0.00645095       0.00435071
Ar       9.77722254       3.87219445       5.09706503      -0.01144944       0.02188034      -0.00233599
Ar      16.75991938       5.66502495       8.78662243      -0.09759494      -0.03740195      -0.00130057
Ar       0.61085127       9.18226114      15.10690413       0.07943847      -0.03420849      -0.02255132
Ar       8.71542061      13.62105667       0.81599251      -0.06146387      -0.06122636       0.07357085
Ar       4.27887487       1.61614187       1.25154979       0.01674560      -0.00329915       0.10385084
Ar      12.83902335       1.73265351       9.66995335       0.03964092       0.00719770       0.05445099
Ar      12.02868198       1.38367279      16.10776039      -0.02745298      -0.02452870      -0.07902319
Ar      10.11565449       7.09451657      12.10310726       0.03264599       0.05581762      -0.02071481
Ar       8.44690795      12.93012212      13.59674807       0.08446143      -0.01687670       0.07881099
Ar      12.56939940      10.19345608      14.87217907      -0.01102104      -0.04739210      -0.04747730
Ar      14.29181962      12.67654941       2.72907537      -0.02974581       0.15597226      -0.00547078
Ar      14.93600765       8.51311305      17.33636024      -0.06453407      -0.00506906      -0.05007325
Ar      11.25931249      11.21245443       0.51583401      -0.02930491       0.01212756      -0.00708960
