108
Lattice="17.35 0.0 0.0 0.0 17.35 0.0 0.0 0.0 17.35" Properties=species:S:1:pos:R:3:momenta:R:3 pbc="T T T"
Ar       6.23760241       2.58515836       6.29137586      -0.02033190       0.10702140      -0.02032674
Ar       7.24774680       6.42568939       5.87977511      -0.02784467      -0.03847406       0.08039942
Ar      10.54561117       7.43994130       2.71395454       0.01537570       0.00789298      -0.01167681
Ar      14.06014827       8.07328678       8.20158039      -0.01173632       0.12129894       0.00312506
Ar       3.02157107       2.06770112       7.96990313       0.01861479      -0.00137513       0.02000829
Ar       3.17724658       2.73353104       3.58971973      -0.03073774       0.01855299      -0.02360789
Ar      15.91921618       3.07403675       3.12124366      -0.03174194      -0.04232018       0.00397066
Ar      13.94838876       4.24473811       9.01064783       0.05428422       0.05216582       0.01013954
Ar      10.69298851       3.81263817       6.30726415      -0.04204839      -0.03433903       0.09285851
Ar      16.19672214       1.34415919       0.31439019       0.02407363       0.08912384      -0.04744424
Ar      10.61810988       7.10788106       6.78983922       0.06711288      -0.02082882       0.00595029
Ar       0.45265490       4.55685345       5.87967368      -0.01757124      -0.01038649      -0.01258762
Ar      17.15026429       4.99697236       0.53460707       0.01393986      -0.04300107       0.03657718
Ar       6.59549070       7.96771020       1.71738186      -0.05848355      -0.04865594       0.07218561
Ar       8.03344329       4.22514936       2.31534498       0.01278780       0.04222720       0.04698941
Ar       0.43397123       0.90359626       5.40289118      -0.05865365      -0.00100549      -0.01976046
Ar       6.36229831      16.89926603       4.63228856      -0.01520934       0.03353603       0.08863095
Ar      11.91730553       3.78575134       2.60897960       0.02438164      -0.10402442       0.02203025
Ar       4.07824284       5.51669441       7.73980632       0.01211281      -0.04645304      -0.07761803
Ar       3.47417790       8.95473208       0.45563237       0.06238654      -0.03370702       0.03518202
Ar      13.97427491       5.28674753       5.18029163      -0.00995790       0.08027203       0.09077835
Ar      14.96208867       0.06299861      10.49394957       0.11963620       0.02452647       0.04476796
Ar       4.46145772       4.19995298       0.74721909      -0.00745024       0.00694867       0.11190430
Ar       3.98800591       6.03953737       4.02822176       0.14642525       0.00459205       0.08718983
Ar      14.51496163      16.82827230       2.61713755      -0.04338828       0.03724402       0.06693869
Ar       7.97435623       3.47381989      16.20836438       0.06837528      -0.07045532      -0.05224469
Ar       5.21955567       3.83534985      13.87001628       0.06504651       0.03855880      -0.08053954
Ar       8.92189208       1.63860329      13.10591152      -0.01318853      -0.05951349      -0.06060234
Ar      15.13478044       0.64528482      14.34339544      -0.09154287      -0.00038932      -0.11357522
Ar      17.07799134       2.40024586       8.65095243      -0.04153940      -0.04187612       0.06616920
Ar      11.52184634       5.15073558      16.06043194       0.08497543      -0.00298888       0.06360821
Ar      11.49217780       1.56154835       8.86437107       0.03445045      -0.02868630      -0.09173420
Ar       7.29837777       8.42750598       9.15918755       0.00096629      -0.00932751      -0.03901926
Ar       8.60171401       5.08903083      12.79248746      -0.04441060      -0.02140131      -0.00732707
Ar       2.40550980      16.85132613      17.30769947      -0.06119248      -0.02345741       0.06791071
Ar       0.20199755       5.85988095       9.25171350      -0.04472013      -0.05555931      -0.00447522
Ar       1.25452387       5.96089395      14.33749339      -0.05736368       0.05395618       0.08618989
Ar       1.69654987       2.32069553      15.24101740      -0.01211760       0.11185230       0.02215377
Ar       7.39087617       4.77227667       9.14486565       0.10462878      -0.03088587      -0.02008675
Ar       5.25311188       1.12331370      10.98437367      -0.11962062      -0.12677506       0.03762627
Ar       1.31337498       7.92388329       6.04081502      -0.10695898       0.00251503      -0.06618101
Ar      10.89689625       5.11364429       9.84761206      -0.01077024      -0.03948322      -0.02180091
Ar      16.46563213       3.76157332      12.04623607       0.01129364       0.02744954       0.04724375
Ar       9.50852340       8.15007064      16.73688788       0.06000929      -0.02093382      -0.00861488
Ar       6.08266335       6.74904232      15.60073315       0.00384982      -0.00322906      -0.10605616
Ar      15.06474253       7.52321201      12.00378636      -0.01552482       0.02855069       0.06753137
Ar       4.17041512       9.65256496      14.52898123      -0.13550115      -0.03746332       0.02357534
Ar       2.87117810       3.80071472      11.22974510      -0.00415967      -0.02890915      -0.01783099
Ar      15.85635909       8.20885327      15.64482343       0.03357698       0.05501231      -0.02789103
Ar       1.01247661       0.89354023      11.78052707       0.05203495       0.03175355      -0.09430600
Ar      14.65025307       4.79558428      15.22724392      -0.07968795      -0.01864044       0.02864137
Ar      13.01923839       3.08566057      12.28834236      -0.03551095       0.09900391      -0.13213178
Ar      14.48210088       1.32122084       6.43591700      -0.06001534       0.02333878       0.07086704
Ar       3.99852261      12.10213921      11.72985342       0.06828172       0.00022035      -0.02048554
Ar       1.82297894      11.24019325       4.75145618       0.14108311      -0.03242541      -0.03134745
Ar      15.23225801      11.71384182       6.28998035       0.01730609      -0.07218268      -0.08254718
Ar       5.85861943      11.30098927       1.64901251       0.03270053       0.09081527       0.01849392
Ar       4.52952808      13.68016696       4.62793085      -0.05517932       0.04783935      -0.11750414
Ar      13.91594456       9.78538156       3.85476698      -0.07149075      -0.02062312      -0.01988215
Ar       8.37684697      10.28780407       5.17004764       0.01633996       0.09408939      -0.06888453
Ar      16.50532938      15.01181105      16.84383858      -0.00369759      -0.05249701      -0.06919705
Ar       8.03292219      14.31054943       2.57758589      -0.04283025      -0.07178034       0.01719504
Ar       9.65681765       0.12166418       2.00278797       0.07118218       0.02448909       0.11463385
Ar      16.72028127       8.21945591       2.41838699       0.06036089      -0.13684425      -0.07018497
Ar       4.87075704       9.09453130       4.83191862       0.04117585       0.05855747      -0.02697037
Ar      13.12250892      14.83934746       6.57060718      -0.10708410       0.06667001      -0.01172167
Ar       5.61901342      15.18833385      16.98111665      -0.01254629       0.05866072       0.00614343
Ar      11.65381571      10.76571717       6.50350396       0.04664649      -0.03685014       0.01623883
Ar      17.26958723      14.49938507       5.19202908      -0.09352686       0.01317025      -0.00298994
Ar       9.89939330      10.98274129       2.19112822       0.02048094      -0.07494307      -0.02966182
Ar      10.87195442       0.33064356       5.23529903      -0.00767515      -0.03854859       0.07067565
Ar       8.30392371      16.32455900       8.81959710       0.09149630      -0.05415547      -0.06192384
Ar      14.96808736      13.43158602       2.87521183      -0.01289634      -0.02624247      -0.01434281
Ar      16.05722120      14.31173831       8.63246516       0.06305907      -0.02130288       0.02405912
Ar       2.53214186      12.65924828       8.45113374       0.10216896       0.00200345       0.00544862
Ar       6.46150125      11.84851775       7.96182337       0.01526801       0.08987731       0.01848748
Ar      11.60617689      13.94903716       1.20631731      -0.00796222      -0.03781148      -0.01019196
Ar      11.66003517       1.60223437      16.21601768       0.02135745      -0.04926934      -0.04048577
Ar      14.02123074       6.44061933       1.25484793       0.08205001      -0.01356215      -0.08262767
Ar       9.07905765      14.62944308       5.83505099       0.01550878      -0.03762493       0.04328499
Ar       2.80981275      16.36765366       3.47914516       0.09079430      -0.00516015      -0.00143652
Ar       3.04990803      16.04407396       6.89997382      -0.08948006       0.03351467       0.09515251
Ar       5.73239572       0.41768820      14.62405382      -0.04269137       0.13564647      -0.05556364
Ar       1.93997374      13.47663974       1.67438213       0.05248449       0.01342675       0.02494453
Ar       2.15561867       9.16222132      11.74021338       0.00734995       0.01854656      -0.02049516
Ar       3.95990067       9.27469207       8.25273164       0.00320101      -0.00848074      -0.05751067
Ar      10.78693295       9.20425832      10.83612699      -0.02830930       0.07558142       0.08919656
Ar      17.25132429       9.48242479       9.11798580      -0.03108847      -0.03338260       0.06598713
Ar      13.63278839      11.19713775      10.86094466       0.02924378       0.03634614       0.06818214
Ar       3.32265711      15.70921331      12.68969288       0.02241714       0.00812312       0.02951156
Ar      12.06601920       7.95646116      14.18828389       0.03132485      -0.11398821      -0.10314268
Ar      12.70802065       9.69006373      17.07800811      -0.01806385      -0.06927027      -0.01317608
Ar      14.41011447      11.53978251      14.50180690      -0.04004166      -0.01445769       0.05658261
Ar       3.02012560      13.25351619      15.45631735       0.06580024       0.05537739      -0.07524115
Ar       0.62234192      13.16201431      12.30842791      -0.03766853       0.06947876       0.04899100
Ar      14.47826427      14.44327917      12.22004922      -0.08069737      -0.09222754      -0.08982167
Ar       7.91243787      10.27486925      12.34800548       0.01666646       0.03457465      -0.04821799
Ar       8.44355132      12.90106580      15.98130630       0.00525373      -0.01019359       0.07989869
Ar      12.80229641      15.38897412      15.33356698      -0.07810300      -0.04151939       0.01174370
Ar       5.56906750       0.85246899       1.10783955      -0.01175596       0.01731657       0.00671318
Ar      11.46702389      16.37646003      11.81138725       0.01656568      -0.00867114      -0.06033502
Ar       9.46217879      16.29355650      15.98902147      -0.04422721       0.02313610       0.03238186
Ar       5.29373620       7.09779796      11.53792898       0.01435608      -0.01270098       0.01887808
Ar       8.02205776      14.43014586      12.61205475      -0.07526703      -0.01258354      -0.07201665
Ar       5.35474423      14.71392745       9.76366146       0.04321984       0.00932917      -0.06107963
Ar       9.76109488      13.12531929       9.49981503      -0.03097724       0.04650056      -0.01328104
Ar      10.88897964      11.23409365      13.76719087       0.00889517      -0.02948315       0.03150900
Ar      16.94886090      11.07199469       0.10139563      -0.07213774       0.05264344       0.09422889
