108
Lattice="17.35 0.0 0.0 0.0 17.35 0.0 0.0 0.0 17.35" Properties=species:S:1:pos:R:3:momenta:R:3 pbc="T T T"
Ar       1.83528800       9.95629078       6.00830283      -0.03630767      -0.00262454       0.12740486
Ar       0.84021197      16.29556940       7.40503197       0.02642242      -0.05314991      -0.00516990
Ar       4.52597603      11.52657837      10.51061116       0.03109360       0.02447450       0.09759959
Ar      11.63999532       2.21082069       5.24298396      -0.05299541      -0.08359575      -0.02840473
Ar       4.58905314      16.09839327      14.29272229      -0.07258340       0.02509363      -0.05284708
Ar      11.50104589       9.92863053      13.22362567      -0.00936202      -0.05929415      -0.15258868
Ar       1.31930769      17.06447185       3.12942892      -0.09898590      -0.03840815       0.06325867
Ar      15.44553046       4.59038050       8.46277750       0.00568366      -0.06851711      -0.04012717
Ar      13.14516335       2.74130597      13.50217097      -0.12127044       0.08372427       0.00407607
Ar      13.79380568       5.56612509       5.20983547       0.09439155       0.00146433      -0.02509962
Ar       3.92643536       8.18651048       8.93344177      -0.02398901      -0.11805572       0.00706485
Ar      16.04574390      11.32226254       6.72149389       0.10252509       0.10308153      -0.04318376
Ar       2.12630877       2.16964007       9.75434013       0.02457724      -0.08123801       0.01103787
Ar       4.31406395       7.36661653       5.48413307      -0.01292583       0.05304791       0.01607880
Ar       5.22134306       1.66293329      12.05206329       0.01394676       0.03285456       0.04429401
Ar       4.84614524       8.99759938      16.51199577       0.00515613      -0.04579651      -0.02325695
Ar      12.72206328       4.26922784       0.02543799       0.07827026      -0.12598000      -0.04233401
Ar      16.16881163       1.93644487      16.76222274       0.05043688       0.06389783       0.09187117
Ar       4.15857768       3.43870694       5.79709885       0.03992442      -0.00592265      -0.00558522
Ar      13.64867769      11.90703060       3.72719317      -0.05682465      -0.06218121      -0.06598399
Ar      10.00890062       7.07049214       2.73508707       0.03924365       0.04993197      -0.03997245
Ar       8.02826449      12.76567530       8.99135060      -0.05055797       0.02122490       0.06316434
Ar       6.07622576       4.72391904       9.26071861      -0.01581551       0.00782239      -0.03215244
Ar      11.74329850      10.13893393       9.30138207       0.00711989       0.12106324       0.05672173
Ar       6.80985099       6.32562874      13.00460303      -0.00070873       0.02415651      -0.06951870
Ar       2.49979780       1.32988477      16.13399233      -0.01762240       0.01348863       0.08787022
Ar      11.43337390      14.50484960       0.65834066       0.03530094      -0.04752416       0.07145806
Ar       9.56301429      10.89617999       2.38432946       0.00351936       0.13279019       0.05181469
Ar      14.55000026      15.29594392       6.70183925       0.01228658       0.10689575      -0.07415779
Ar      10.82083127      14.66152957      10.79443150      -0.08076263      -0.00298513      -0.02599771
Ar       4.19587147       0.26198785       4.59431769       0.01472364       0.02010137       0.04032891
Ar       9.85876155       3.51908505       2.22714552       0.08376683      -0.03485503       0.01636701
Ar       5.13925467      10.80801425       6.26842672      -0.02542891       0.00045624       0.02025679
Ar      14.18481566       7.85895496      10.09357594      -0.00047923       0.05322925       0.08734950
Ar       2.43951374       9.08235344      12.32706292      -0.00647267       0.02204942      -0.03003392
Ar       8.27720626      10.14404524      16.43254921       0.02977491       0.03121002       0.05153441
Ar       3.19301629       5.32409861      12.70313363       0.05591579       0.07252515       0.11009038
Ar       9.90229891       3.73440912      14.97692758      -0.00098147      -0.03891684      -0.02470504
Ar      12.55567492       1.08872020       9.42170292      -0.08321031       0.06377030       0.00951415
Ar      16.97253095      15.67411099      10.87084825      -0.04690228      -0.02821746       0.09420521
Ar       4.37132074      16.14889590       0.59433675      -0.04192517       0.08248731       0.02790376
Ar       3.56235049      15.62040001      10.67901680       0.03304676       0.07243384      -0.00892710
Ar       4.89209233      12.20767350      14.38699214       0.07828285       0.08099013      -0.10147334
Ar      15.62224901       3.12579862       2.85910555      -0.06407214       0.02620878       0.10746612
Ar       0.18219132       9.77473053       9.72070374       0.07901669       0.02314235      -0.00044909
Ar      14.61992468      16.00408600      16.61526517       0.06757727      -0.04921431       0.04583141
Ar       8.38234490      11.77839077      12.56579410       0.05294283      -0.02809898      -0.01148477
Ar       9.12115754       8.31891934      11.43509858       0.03516167       0.01921239      -0.03958068
Ar       1.31929435      13.01604592      12.42829180      -0.04064482      -0.05498542      -0.03673520
Ar       4.24716436      14.65489940       7.57876416       0.00506788       0.10042843      -0.00595812
Ar       7.17679686       7.79974149       8.07721341       0.01543383      -0.04790541       0.04447951
Ar      15.44011040       8.66059486      16.39148313      -0.04969236      -0.08168743      -0.04744599
Ar       0.72824758      10.89472280      16.11854625       0.00272536      -0.08543122      -0.03565009
Ar      16.14875622       9.30659969      12.96088402       0.02556826       0.01091229      -0.07682692
Ar       6.24091010       3.52661614       2.66091188      -0.05238984       0.06022579       0.00342408
Ar       5.46846563       1.18626017       8.48999135      -0.01871392      -0.08561619      -0.00996972
Ar       3.86448601       6.59391148       1.75745237       0.13876678       0.06544253      -0.08172939
Ar      16.32828756       1.42013788       9.68803528       0.02750149       0.01767441      -0.03903854
Ar       0.41234966       1.65279247      12.99706697       0.03235951       0.06057610      -0.11862825
Ar       8.22724070      13.50362201       5.28976796      -0.02670644      -0.00272221      -0.03234503
Ar      14.52163125      12.51267928       9.81008482      -0.01351229       0.03933089       0.01297281
Ar      11.74205148      12.82366807       6.53263600       0.02576150      -0.01623807       0.00052951
Ar      14.73963948       1.50149165       6.31261492      -0.10482321      -0.05098412       0.00518603
Ar      13.32423817       7.78894023       2.15866042      -0.02347578       0.01912493      -0.05679213
Ar       0.73179814       2.45434061       6.41215425       0.01695661      -0.01905156       0.03843390
Ar       7.85417607      15.90416056       8.05546004       0.01693691      -0.09069964       0.00478756
Ar       2.71039637       2.85560091       1.78655229      -0.05051982      -0.00801865      -0.02308774
Ar       7.90033510       1.14960940       5.54941317      -0.13064654      -0.00049803      -0.03349560
Ar       3.44758174      11.24273497       1.63473085      -0.01471502      -0.09741263       0.11146421
Ar      12.43052633      10.72890400      17.32207262      -0.00714225       0.01828930      -0.02569937
Ar       4.00841837       4.51862675      16.16927230      -0.04506546       0.00049482      -0.06275232
Ar       9.79910077       3.27606121       8.00314099       0.01518687      -0.02885726       0.11042022
Ar      15.01236514      12.52091921      14.26052912      -0.04145743      -0.07002540       0.02349482
Ar      11.47514978      15.96001495       4.41169946       0.01443445       0.01959497       0.04628441
Ar      10.66818747       7.27090036      16.39141624       0.00910777       0.00619679       0.02018340
Ar       0.48894095       6.18679174      10.88728750      -0.02854735      -0.05645896       0.03266853
Ar       6.83706266      13.41213546       1.90605063       0.04359277      -0.08332683      -0.00428107
Ar      11.75854276       1.06349499      16.18300652      -0.02575794       0.04316101      -0.08206846
Ar       1.02749530      14.39339051       0.59818413       0.05614310      -0.01434760       0.00312390
Ar       1.13189738      13.21914090       4.72150022       0.00194954      -0.07941842      -0.03263251
Ar      15.49481316      12.11984910       0.94241911      -0.09535407       0.02358323       0.06179281
Ar      10.48411356       4.49397762      11.56972267       0.00812592      -0.05403498       0.04654992
Ar       8.82718065       1.32102009      10.82581612      -0.02853045       0.02538712      -0.01795727
Ar       0.80455301       5.19154717       4.18249947      -0.07391687       0.01181854       0.08792070
Ar       9.56960388      10.01717047       5.94477707       0.05163436       0.13770000       0.03633387
Ar      10.92700143      14.66306771      14.30435770      -0.06159583      -0.06436084      -0.02736990
Ar      16.69428860       4.90327561      13.98394631       0.05574217       0.00118726       0.04292714
Ar      15.56296262      15.65163980       2.56994218      -0.00428804      -0.00731746      -0.14061247
Ar       7.32077861       5.70898933      17.31892989       0.03985647       0.11109415      -0.03264831
Ar       6.10518189       1.66126371      17.02200006      -0.03800601       0.02099027      -0.04364127
Ar       8.06600220       5.01440291       5.51411923       0.02223851      -0.04602170       0.01297120
Ar       8.47719244       0.05548903       2.14079502       0.08216117      -0.03855169      -0.08634926
Ar       1.54063981       7.17429993      15.43000563      -0.04896133      -0.05353032      -0.10090198
Ar       1.35606752      12.92601497       9.04675295       0.00956062       0.02433312       0.10350698
Ar      17.04060395       5.76601425       0.73745953       0.05394463       0.03484894       0.05428689
Ar       2.08054818       5.62415374       7.49702604      -0.04881587       0.02852905      -0.00006356
Ar       6.92737671      15.53084868      12.00547492       0.08148342      -0.04597368      -0.06004990
Ar      12.84764238       8.89986068       6.11791320       0.03620327      -0.04843160      -0.02608723
Ar       6.23522587       8.95495242       2.93626649      -0.00502330      -0.10429910      -0.02827244
Ar      12.91512029       0.76581472       1.76617355      -0.01701397       0.05101273       0.00286168
Ar       0.24480549      15.47682761      14.88762892       0.00893664       0.03183455      -0.04974317
Ar       7.15336414      14.52022987      15.86665971       0.02307847      -0.01640162       0.11094494
Ar      13.21720646       6.23160922      13.80261906      -0.06359391       0.10563471       0.03756647
Ar       8.45749952       0.75857846      14.32955441      -0.00143188      -0.00728198       0.03139583
Ar      13.74268014      16.41166444      12.61771176      -0.03477332       0.01504637      -0.12859134
Ar      16.54507573       7.59135538       6.88207963       0.01778051      -0.04037907       0.03144586
Ar      16.26779319       9.27921556       3.60272046      -0.00773644       0.00076149      -0.04087097
Ar      10.43514009       6.90061222       8.19684812       0.08468906      -0.04319771       0.00880991
