108
Lattice="17.35 0.0 0.0 0.0 17.35 0.0 0.0 0.0 17.35" Properties=species:S:1:pos:R:3:momenta:R:3 pbc="T T T"
Ar       0.78153325       9.24144545       6.72280997      -0.00566492       0.03670061      -0.13867025
Ar       5.65249909       4.74917313       8.06164812      -0.12006389      -0.06092701       0.15410896
Ar       6.68834364      16.33776879       7.27052067      -0.03529020       0.07103432      -0.01307552
Ar       2.08128477       2.38233659       9.71987239      -0.01241767      -0.04326933      -0.01168657
Ar       8.11062981       3.90501545      15.60715615       0.01663803      -0.03373399      -0.01925080
Ar       7.11831493       9.55537616      10.29743908      -0.04161846      -0.00647103      -0.02169763
Ar      13.22512695       3.57031259       0.68366077      -0.02342530       0.07047096       0.04029674
Ar      14.13782075       2.04440655       8.34155300       0.00350891      -0.00153147       0.00092198
Ar       9.23650415       6.81535553       8.94133810       0.05353828      -0.03735050       0.01521474
Ar      13.10793480       7.41909102       2.73348965       0.03591112       0.03106842       0.01283144
Ar       1.77406446      11.45009235       9.33745506      -0.08665289      -0.02956401       0.09824149
Ar       0.42244453      14.87890580      10.94604052       0.02146799      -0.09738349       0.11850203
Ar       3.78907138       9.77901568       4.47132188       0.00673996      -0.02560563       0.00280340
Ar       2.94602558       6.02741496       5.48627719      -0.05158278       0.03371377      -0.04826984
Ar       5.34589747       6.87132348      11.77661561       0.04387489      -0.05207154      -0.05113939
Ar       6.69159308       2.79253496       1.24628736      -0.03817288      -0.03297947      -0.06398744
Ar      16.93442517      17.20289379       3.70113890       0.03821939       0.00391256       0.01260625
Ar       9.71665587       8.98010035       2.24967251       0.12021072      -0.04969477      -0.04562338
Ar       8.10243574       3.70933866      11.31356422       0.03356724       0.03474876      -0.10988838
Ar      16.41315594      10.34849483       3.20666043      -0.07251723       0.03114806      -0.01259440
Ar      10.25529603      16.77538163       6.12745265      -0.02491750       0.02552441      -0.01475870
Ar       5.49125879      12.60338541       7.96111828       0.06204456       0.09762326       0.00616745
Ar       1.50558586      14.99152177      14.74123688      -0.06161873       0.06482863       0.01030932
Ar       6.03312778       7.77290520       2.34763842      -0.01534542       0.02585777       0.03546539
Ar       9.95873421       5.59452953       1.02292861       0.03450934      -0.03102055      -0.02406033
Ar       4.87375472       3.55210110      14.19911495      -0.01038425      -0.07050109       0.02589415
Ar       7.70317336      17.00514479      17.14487297       0.02869150       0.04743265       0.11440303
Ar      10.08309376      14.46831978       0.17198017       0.04682768       0.02252581       0.07073571
Ar      15.84272584      11.53637543       8.29034284      -0.05668368      -0.04712337       0.07370375
Ar       7.63709243      13.62247408      10.55404634       0.02776690       0.06721973      -0.00014750
Ar       4.53083853       7.58601171      15.96052302      -0.11018867      -0.00205122      -0.01714311
Ar      15.11006327      15.65722175      14.15499654      -0.04010078       0.09322790      -0.01654390
Ar       7.17092863       9.81965877       5.45769092       0.00278192      -0.03956510      -0.05202870
Ar      12.61651961       5.87357873       7.26303357       0.12391406       0.02343038      -0.09222466
Ar      12.08720663       5.34516456      15.13634163      -0.02403945      -0.04253937      -0.03318332
Ar       8.42237350       7.47416348      15.76942023      -0.02139097      -0.04498301      -0.05110341
Ar      17.14759008       6.66625535       3.75403292      -0.10308943      -0.06985577      -0.05243391
Ar      12.02390175       1.07566230      12.80793972      -0.00514970       0.10234449       0.03420400
Ar       8.81753635      17.03957891       9.99072246       0.00993719       0.08465543      -0.09590374
Ar       2.28325482       0.48268325      12.92263907       0.10445024       0.01132263       0.01269137
Ar      14.45412731       4.27231295       4.84072586       0.07494851       0.07094402       0.08956957
Ar       9.02595929      16.12245072       2.95695573       0.00256962       0.03949267      -0.02020819
Ar       3.70944144      13.37150525      12.26779016       0.03326296       0.02207971      -0.08793198
Ar       7.10080874      10.65786408       0.19909680      -0.11080533      -0.02728702      -0.01458383
Ar      14.25326359       8.64665377       5.90136401      -0.08825120       0.05120521       0.02127271
Ar      16.11048750       0.82071804       0.38943387       0.03343594       0.04718824      -0.00000058
Ar       3.21063225       9.50834157      12.76009544       0.02994365       0.09505679      -0.08368343
Ar       2.54425777       5.23037226       0.72142442      -0.06916999       0.04597206       0.08445575
Ar       5.08768082      17.06050015      14.51861046       0.06119538      -0.02653914       0.00065370
Ar       5.22140333       0.27675733      10.97658617       0.04394507      -0.04523725      -0.09965773
Ar      15.69373900       4.09462566      10.44425439      -0.05101112      -0.01741865      -0.05366399
Ar       1.37280180       4.50269676      12.64148862       0.04507155      -0.10074605      -0.09030084
Ar       7.32404318       6.12041256       5.53610809       0.02577703      -0.08023748      -0.00289607
Ar      14.38623605       7.83500756       9.63942834      -0.10913967       0.02132005       0.11641126
Ar       2.16212126      12.47772617       2.52037817       0.01113746       0.09322302       0.08570648
Ar       4.24791706       8.23191965       7.95677650       0.09855963       0.03258160      -0.00192045
Ar       1.88086124       9.04715785       1.30127476       0.01767980       0.01568835       0.00651652
Ar       1.25524797       2.89955527      15.66432289      -0.04070025      -0.04506723       0.02085677
Ar      15.29878231       6.51165204      17.32238982      -0.05313982      -0.11041326      -0.02100882
Ar      10.63645347       9.37291668       5.81574086      -0.02373394       0.02155594       0.02198607
Ar      13.95771691      12.65706861      11.33068039       0.01539427       0.00392426       0.05796266
Ar       2.80570564      15.93873989       4.60402957      -0.04184451       0.04486390       0.03318740
Ar      16.82769291       3.76064779       1.93368957       0.04937504      -0.10985194       0.00378861
Ar      13.59841195       0.66492598       5.33649207       0.05526035       0.08219897       0.03465113
Ar       1.59119813       6.46103402       9.66368651       0.06044256      -0.08733600       0.04215655
Ar       9.07352843      13.54080265       6.57850924       0.10111290       0.03426168      -0.08582902
Ar       5.67031909      16.88542062       2.64040844      -0.04241000       0.10179169      -0.07405560
Ar       7.35388493       2.31228010       4.75482522       0.08591627      -0.01611503      -0.07383135
Ar       5.35917909      13.44561878       0.75271331      -0.08240506       0.00517856      -0.05206494
Ar       0.15868789      12.18953912      12.89279664      -0.11671392       0.00989534       0.12700096
Ar       3.99359924       1.86385150       6.25265760      -0.01661415       0.06057308      -0.01802748
Ar       9.42685171       3.55605008       7.50728904       0.09306237       0.06280183       0.10097085
Ar      13.66013914       9.72650956      13.36952550      -0.08267116       0.01641266      -0.06545018
Ar      12.92983736      13.16204275       6.42431025       0.03736106      -0.06729298      -0.02240412
Ar      10.06208335       2.02253676       2.12168084       0.11051810      -0.05702309      -0.03306384
Ar      11.97130600      15.04798892       9.09362881       0.01603054      -0.00595440       0.00726813
Ar       5.07793662      13.32947990       4.45536870      -0.04571943      -0.03953112      -0.04117932
Ar       2.78059463      12.01170353      16.11701818       0.03401124      -0.07142433       0.10389952
Ar       2.14733693      15.58310700       0.95052518      -0.04042453      -0.08098244      -0.01518860
Ar      13.20932665      15.45284406       2.03161533       0.02505123      -0.01194164       0.03887386
Ar      16.54848296      13.76316954       0.47939610      -0.11776801      -0.05837984      -0.09936081
Ar       0.48397482       2.92132541       6.04977043       0.04973974      -0.04711603      -0.00852507
Ar      11.02046810      10.52467772       9.38918129       0.02652352       0.07917822       0.05605487
Ar      17.08735745       9.07764537      11.62655660       0.04256614      -0.00161607      -0.05959574
Ar      12.99272506      11.33896954       2.84845174      -0.04923674       0.08876031       0.01901416
Ar       7.23249939      13.96162067      14.63728313      -0.00826383      -0.01854437      -0.04369998
Ar      15.22901873       6.51241161      13.27411038       0.04475700       0.07499549       0.05615837
Ar       1.73042968      12.86658387       6.19068655      -0.04624762       0.04576779       0.00062700
Ar       6.69177451      10.20685150      13.83065411       0.05711009      -0.11184404      -0.02779611
Ar       8.68909125       0.52044239      13.76691176       0.02077469      -0.05817406       0.03768304
Ar      11.99101651       4.78391642      10.30558766      -0.04269380      -0.13585052      -0.14033935
Ar      13.17299104      12.95806229      15.55936833       0.04424986       0.01380201       0.03639147
Ar       2.89672346      15.75081056       8.67236809      -0.07176053       0.07866552       0.02528621
Ar      16.16934328      16.33239457       7.52319941      -0.01355908       0.01389225      -0.00278307
Ar      14.96582327       2.45632361      14.68238747       0.02531788      -0.02369134       0.11972577
Ar      10.96106831       4.82419333       4.34517269       0.01077683      -0.02147736      -0.11312259
Ar      16.15825227       6.18141982       7.26510704      -0.00793314       0.00925205       0.00490796
Ar       1.04822793       7.29349395      14.91450004       0.06228795      -0.02050301       0.05506445
Ar       8.55851802      12.36876127       3.01889593       0.06787155      -0.01373455      -0.02439159
Ar       3.53459771       1.72602642       0.74072026      -0.03016295       0.00749071       0.00356798
Ar      15.65023228       0.37348661      11.12269597      -0.01275875       0.00950065       0.08153256
Ar      12.46908233       0.29805415      16.72122602       0.00043331      -0.04487318      -0.01304863
Ar       9.62952803       6.90829197      12.76463242      -0.05452149       0.04707437       0.09858402
Ar      11.15611628      15.02562087      13.18048673       0.05733034       0.03223259      -0.04915600
Ar      10.08353770      11.13875172      13.22566955      -0.01409790      -0.01257737      -0.02966301
Ar      16.25926553      13.91892975       4.55631993      -0.05713788      -0.04183184       0.07373693
Ar      15.78101723      10.19928271      16.99939864       0.01219241      -0.03079935       0.01288221
Ar      11.37920470      10.17917595      16.26305567       0.00361688       0.00202157       0.03634048
