108
Lattice="17.35 0.0 0.0 0.0 17.35 0.0 0.0 0.0 17.35" Properties=species:S:1:pos:R:3:momenta:R:3 pbc="T T T"
Ar       1.40758724      10.91058154       4.05746626       0.05543464      -0.05559754      -0.03608448
Ar       3.58123451      16.98437415       8.46573532       0.00204370      -0.02512240       0.06775284
Ar       5.10606252      11.83147996       9.55915646       0.05407457      -0.05844313       0.06181413
Ar      12.87271385       4.39493147       5.46332334       0.00809891       0.00705786      -0.05347038
Ar       2.77990965      16.05055923      15.09233464       0.04686616      -0.02784273       0.02234106
Ar      12.51237293       8.91283942      13.69387218      -0.08265767      -0.02305444      -0.00160335
Ar       0.79888681       0.30962812       0.04281496      -0.04943732      -0.07683010       0.04479528
Ar      15.49902550       4.18337158       7.63754789       0.08962500       0.03315013       0.02405542
Ar      12.56818050       3.09087192      12.41003834      -0.03110554       0.01744299      -0.03933643
Ar      13.40650060       7.68042003       6.46073474      -0.00177220       0.05802994      -0.03230847
Ar       2.92897069       9.55244552       6.81703566      -0.00247371       0.08719897      -0.02923773
Ar      15.27891966      13.48570138       5.94437991      -0.05428180      -0.05499754      -0.02158639
Ar       4.01656856       3.07263707       9.05420588      -0.01559680       0.02689775       0.05692856
Ar       1.68074865       6.35684420       3.98526368       0.03222068       0.03393276       0.03836938
Ar       6.29057229       0.70572868      10.90468553      -0.02539893       0.04003869       0.08421406
Ar       5.49671326       9.79399942      15.29718966       0.09116044      -0.00276079      -0.02929776
Ar      13.24885324       4.15125540       0.91549005      -0.07137010       0.05620112      -0.09588845
Ar      15.18516742       2.18129414      15.27213349       0.02788350      -0.02795010       0.01722742
Ar       4.05603160       4.08721870       5.51698429       0.07193209       0.03321102       0.05565512
Ar      12.53400695      13.84427124       2.40424411       0.07469215      -0.01837285      -0.08473247
Ar       8.99357653       4.49617581       3.73287667       0.04424202       0.03595989       0.09914627
Ar       8.90876358      11.55657251       8.77161310       0.03706795       0.03681133      -0.01390836
Ar       6.75393991       4.72696875      10.74011986       0.05359661      -0.00496331      -0.03624072
Ar       9.90005879       8.28561947      10.06388969       0.01564654       0.07108656      -0.02563631
Ar       6.95895174       3.91382417      14.43999668      -0.00690554       0.02973591      -0.05520013
Ar       2.59057603       3.24779492      15.60967970      -0.06922943      -0.01658764       0.01225784
Ar       9.88203156      15.64211284       1.02320443       0.05611947       0.07950468       0.08769348
Ar       8.35611027       8.50570587       1.66907599      -0.05786463      -0.05693231       0.00471255
Ar      14.11575602      15.22073867       9.14229073      -0.08806935       0.06423371      -0.00755299
Ar      10.86952521      14.66007689      12.82011728       0.03572251      -0.03177960       0.07318036
Ar       3.29182569      16.81947179       4.91634797      -0.06054739      -0.07204470       0.04649832
Ar       9.75117059       1.42473711       2.27164641       0.05625752      -0.01776318       0.05546206
Ar       5.58784923      11.24940697       5.75060216       0.04934889      -0.01314900      -0.05493237
Ar      13.66855817       8.02055255      10.35736128      -0.07747941       0.01681589      -0.00685768
Ar       3.68314445       9.24312435      11.77435132       0.00554479       0.00049772      -0.00059538
Ar       9.00305901       9.38052723      15.22010021       0.02901924       0.01988846       0.03505781
Ar       3.98984378       5.14042917      12.73348944      -0.02295927      -0.04218749      -0.01429953
Ar      10.56227639       2.84890255      15.77910596       0.04231139       0.06827516       0.04276302
Ar      12.31665797       0.97862561       8.09104205       0.04152351       0.01465346       0.01921027
Ar       0.36574115      15.86387393      10.01247486       0.15381411      -0.04583697      -0.07014455
Ar       4.37967060      16.76456518       1.56086710      -0.07338159       0.04087552      -0.09603341
Ar       3.97410756      15.14021559      11.19844069      -0.01355642      -0.00898535       0.00614302
Ar       4.61252451      13.04192993      14.01868476      -0.07153576       0.10167935       0.00289848
Ar      15.72589931       2.71419874       4.49325536       0.08599126      -0.05087815      -0.03394358
Ar      16.41130199      12.23698182       9.78448294       0.04075997      -0.05217563       0.06010790
Ar      15.10857083      15.69903804       0.01310699      -0.11778124      -0.03985226      -0.01158763
Ar       7.64039884      11.11593983      12.21195670      -0.02385851      -0.04125154      -0.03720018
Ar       7.07180976       7.49544146      12.53761935       0.03903997      -0.06932874      -0.08256974
Ar       0.82861513      12.89331218      12.68236525      -0.02454745      -0.10806811      -0.04269170
Ar       7.38873195      14.78768993       7.36212723       0.01340881       0.09689442      -0.03343859
Ar       6.33296438       8.46270672       8.94031454       0.11335686       0.01246982       0.01416124
Ar      15.23962084       7.37412718       0.64707560      -0.06330007      -0.03689873       0.06959335
Ar       2.04170911      10.53952182      15.35404148      -0.04374090       0.07409221      -0.00331925
Ar      16.27913972       9.63317239      13.66035338      -0.04204827      -0.01093108      -0.04035428
Ar       5.87534014       2.96028986       2.56606561      -0.01151081      -0.04366905      -0.06357979
Ar       6.27700913       1.46246162       7.15985731       0.02622476       0.06198851       0.05162582
Ar       1.23676624       8.66486053       1.26737732       0.07066242      -0.00529371       0.01487131
Ar      15.48055116       1.45638901       9.83293411       0.00902918       0.01028068      -0.07132200
Ar       2.68337084       1.08754374      12.29112859       0.04353463      -0.03241140      -0.00773083
Ar      10.73670764      13.17773493       5.75584840      -0.07345320      -0.00446651       0.02668942
Ar      12.21485234      12.04196061      11.16193925       0.02984305      -0.04608715       0.10924711
Ar      12.26424794      10.49131133       8.08828663       0.03471088      -0.01828163      -0.00580033
Ar      15.52350647      17.05099328       6.74128613      -0.07811201      -0.02242451       0.02242192
Ar      12.02810402       6.79671861       2.73238196      -0.01519913      -0.00450170      -0.00491602
Ar       1.24003299       1.99693911       7.60362340       0.07530458       0.06302163       0.06032734
Ar      10.60558307      15.47075997       9.43590916       0.00392840      -0.06835524       0.03292190
Ar       1.73201318       2.21679533       3.18887769      -0.08695340      -0.04133120      -0.03062363
Ar       9.64302431       1.49357427       5.51720159      -0.03914572       0.12111769      -0.05342031
Ar       5.21274529      13.47904598       0.26236472      -0.01314668       0.07378965       0.00887108
Ar      11.82518128      10.19577179       0.89588212      -0.07235613      -0.00385459       0.12320957
Ar       3.93721768       5.91744205       0.72125554      -0.02633502       0.02972546      -0.01178254
Ar      11.89412540       5.06091119       9.07958251       0.05146214       0.02058252       0.03079781
Ar      14.84387327      13.06928955      14.56709164       0.06169087      -0.00311868       0.07634179
Ar      12.33620065      16.23271594       5.20624173       0.01156787       0.03286986      -0.02527286
Ar      11.15491944       6.95341166      16.74134196      -0.02591650      -0.09185999       0.03042571
Ar      17.18657819       7.35272250      10.65513675       0.08884831      -0.03395178      -0.00465437
Ar       7.84639520      12.19195521       1.60964053       0.05412366       0.02521686       0.00192118
Ar      12.37180316      16.80103470      15.63874794       0.00698253      -0.02246426      -0.08254834
Ar       1.32487399      12.96603497       1.27699964      -0.00241893      -0.02490905      -0.00261732
Ar       4.03735996      13.51870444       3.52637229      -0.03208562      -0.08724115      -0.00951620
Ar      15.20104157      11.21535053       0.66714550      -0.00321077       0.05299005       0.03755852
Ar      10.17435548       5.83431257      12.92661006      -0.00727242      -0.02458725       0.00852707
Ar       9.53005988       2.84193249      10.25698379      -0.11018198       0.01329299       0.01739051
Ar      15.73865247       7.49117199       3.97872492       0.04209120      -0.04738635      -0.01530930
Ar       5.83122067       6.47850279       3.92056482       0.08628717      -0.02781049       0.09167064
Ar       9.92731976      12.53062582      16.15894843       0.03835019       0.00846616      -0.04214477
Ar      17.25458201       3.46473066      12.24718789      -0.05344878      -0.10573813      -0.02904102
Ar       0.51472045      15.34708065       3.85148294      -0.05083791       0.00328258      -0.00883924
Ar       8.07794638       5.26721807       0.39737528       0.00034702      -0.01539535      -0.03027957
Ar       7.32654863       0.97554724      16.68806770      -0.05992079       0.07889263      -0.05894944
Ar       7.33417542       4.69561839       6.81369407      -0.02042707      -0.05086883      -0.07438753
Ar       6.88057807      16.66195684       4.39960639       0.04041613       0.05731097      -0.13971418
Ar       1.93287935       6.98769032      15.00235018      -0.02249113       0.04430477      -0.04344765
Ar       2.23155521      13.80981589       7.21195741      -0.05502024       0.01533555       0.07905860
Ar       0.42778195       5.17654717       1.00230151      -0.01890628       0.05779295      -0.08508675
Ar       0.88213250       6.11808543       7.50505455      -0.00267343      -0.02508486       0.08449175
Ar       7.66374385      15.29073500      11.66772035      -0.04523069       0.03830841      -0.03400618
Ar       8.90168540      10.36201439       4.45791788      -0.08649881       0.01172205       0.02116267
Ar       4.94953210       9.92525332       1.56784765      -0.01374441      -0.08292065       0.05256861
Ar      13.69146394       0.46615107       2.33131101      -0.08330289      -0.04627521      -0.02827889
Ar      16.63682964      16.30854219      13.54185082       0.05988466       0.05245794       0.01783833
Ar       7.56517001      14.81680490      15.03154709      -0.04171766       0.08993271      -0.03469767
Ar      14.17358427       5.60850591      14.63199632       0.03163805       0.02860138      -0.04429617
Ar       9.23891330       0.68549159      13.17733683      -0.02294090      -0.07013757      -0.02308687
Ar      13.36869979      17.18556891      11.97780098       0.03273344       0.04201793      -0.05896588
Ar      16.36991600       9.33070038       6.78432411       0.04597668       0.06722263       0.04695533
Ar      13.44491273      11.06808524       4.20363035      -0.01966816      -0.04979337       0.05125101
Ar      10.10589630       7.33059815       6.02865652      -0.02741431      -0.06635487       0.01418367
