108
Lattice="17.35 0.0 0.0 0.0 17.35 0.0 0.0 0.0 17.35" Properties=species:S:1:pos:R:3:momenta:R:3 pbc="T T T"
Ar       5.80099519       4.19919488       4.71364494      -0.03232883       0.00727047      -0.01605316
Ar       7.58551338       7.32138159       3.89869593      -0.04432554       0.06987009       0.07683471
Ar      11.36473043       7.91995422       3.53622975      -0.07812399       0.02715861      -0.04519422
Ar      14.60247712       7.14452121       9.96953689       0.00497314      -0.03580232       0.03824495
Ar       3.55652716       2.29547116       7.70149234      -0.01435674       0.09922791      -0.00100139
Ar       3.30235195       1.52415277       4.43413594       0.01002275      -0.03556723      -0.02191110
Ar      15.18047209       3.39189439       1.08672792      -0.07584606       0.04102036      -0.04161393
Ar      14.28680606       4.22760802       8.07120299      -0.04993105      -0.03608051       0.02266817
Ar      11.08654977       4.92942054       5.73752369       0.03459075      -0.04550440      -0.04326698
Ar      17.02163364      16.90332405      15.71197654      -0.08536755      -0.06393691      -0.01885125
Ar      12.41002671       8.80566530       7.63454085      -0.04528634       0.10573216       0.01387068
Ar       0.05660474       2.95204738       5.06018283      -0.00389407      -0.01854302       0.05188951
Ar       1.29635192       3.35208398       1.60641792      -0.02437822      -0.07503227       0.02345423
Ar       6.08811063       6.99801688       0.75114348      -0.10149247      -0.01184170      -0.07444980
Ar       8.28800330       3.61492662       1.79260914       0.02130390       0.00757586       0.03369117
Ar       0.07189780      16.89359321       3.56151221      -0.05632306       0.00468499       0.01422871
Ar       6.10420481       0.48201751       5.95633594      -0.03966501      -0.02358942       0.01354560
Ar      12.07374850       4.28093879       2.26884436       0.06050799       0.01074809       0.01429826
Ar       4.66620343       5.18032522       9.27054013      -0.08300207      -0.09447814      -0.04158880
Ar       2.41459548       8.52844635       0.84403073       0.03722942      -0.00924121       0.01795922
Ar      14.55208206       5.92168846       4.45661856      -0.06530912      -0.00591090      -0.11532348
Ar      13.96489986       0.74173085       9.60944279      -0.04195315      -0.07073861       0.02273107
Ar       4.68170057       3.71103046       0.83034213       0.06121470      -0.06269614       0.08156831
Ar       2.62074652       6.06650745       3.96355412       0.01088388       0.08171834       0.00503893
Ar      13.56293633      16.00716221       3.46185281       0.05077939      -0.00929502      -0.03253041
Ar       9.45043733       2.61890835      15.32465052       0.03414266       0.04256056       0.05305219
Ar       6.40326636       4.26186302      14.11169059       0.10809231       0.02670846       0.04306334
Ar       9.51441368       3.09408496      11.86097783       0.00480360       0.02618722       0.04634098
Ar      14.73725468      15.58243011      13.28361223      -0.09389953      -0.01424859       0.06393612
Ar       0.23719611       2.04433228       8.51301409       0.01434819      -0.10600624      -0.08561210
Ar      10.05405882       6.63279878       0.29377010      -0.04147946      -0.00180320       0.01146471
Ar      10.91241557       2.43931649       7.87181704      -0.07417394      -0.00406892      -0.01905967
Ar       8.10323967       8.65512615       8.04233817      -0.02959014      -0.02718718      -0.06195140
Ar       9.62237454       6.11379977      14.30377933       0.07271728       0.01758135       0.06254677
Ar       2.90952166      16.78479091       1.22382623      -0.07675764       0.01726143      -0.03759936
Ar       0.64318405       5.74397857       9.77306734      -0.00624713       0.03619112      -0.09354196
Ar       1.65119189       5.62716030      16.40700484      -0.09061256      -0.07392394       0.04913272
Ar       2.10783300       2.21056814      14.78404041       0.07565978       0.00196796      -0.00869841
Ar       7.61903206       5.10753671       7.27635151      -0.00831322       0.07852261       0.01345884
Ar       4.25921062       2.37578582      11.13729152      -0.02559617      -0.00024585      -0.01745490
Ar       0.26253574       6.56241577       6.40833298       0.00861705      -0.02815945       0.01213329
Ar      10.99900834       5.79304403       9.29133628      -0.01001384       0.08921561      -0.05723332
Ar      16.81874011       3.12470603      12.15306398      -0.02540588       0.02120159      -0.09483754
Ar       9.02219340      11.14958947      14.89057384      -0.04566302       0.06219816      -0.04832635
Ar       6.70069997       8.41204691      14.43497132      -0.07217651      -0.04358515      -0.01324529
Ar       0.15396404       6.64282346      13.39360040       0.03425249      -0.03020190       0.01886986
Ar       2.96329608       9.86845722      14.37913562       0.08354819      -0.04472847       0.00842633
Ar       3.60463910       5.80927261      12.72261724       0.03238576       0.17783714       0.07468927
Ar      16.81037805       9.22871711      15.90506691      -0.06950295      -0.02612129       0.04674733
Ar       1.38466646       0.08129681      11.55792637       0.07487909       0.05352107       0.06975560
Ar      12.64669224       4.25850382      15.70934031       0.01412413      -0.03128624      -0.05919959
Ar      13.29653472       2.95467175      12.79541997       0.06584467      -0.04248684       0.01164778
Ar      13.51134309       2.11990710       5.58624762       0.00365074      -0.07349949       0.02805566
Ar       3.50124253      12.75589590      10.39682566       0.00751195       0.04245246       0.01650450
Ar       1.33790208      10.08991809       5.71469820       0.06826291       0.04293770       0.05049770
Ar      15.75869483      10.46577914       8.08796870       0.00397158      -0.05295752       0.02584677
Ar       5.85686881      11.15572982      16.70066553      -0.13797556       0.01448149       0.00478733
Ar       5.32560957      14.44991122       2.77023088       0.09105561      -0.02927137      -0.00372028
Ar      14.58494758       9.49317248       4.31381042      -0.02847042      -0.03618174      -0.01800534
Ar       7.39721185      10.99245065       5.11550261       0.01941630       0.05308730      -0.00950732
Ar      15.80049721      14.44250894       1.29295387      -0.00867446      -0.03052924       0.08770371
Ar       9.03504479      14.43096476       3.48370087      -0.00263124       0.08649388       0.14576330
Ar      10.11727309      16.46941305       0.41987937       0.05663738       0.08892677      -0.05956673
Ar      17.06410216       6.93211267       2.34157601       0.01479242      -0.06110740      -0.07851234
Ar       4.73221983      10.13498267       3.24207663      -0.00510754       0.00625123       0.07839602
Ar      12.48351204      15.76405454       6.64815637       0.01779643      -0.04925272      -0.05763080
Ar       6.08829145      15.32475449      16.90350210       0.06472462      -0.02713039      -0.00137583
Ar       9.21171808      12.49062656       8.75127019      -0.06605738      -0.04681946      -0.02676050
Ar      15.74803209      12.70735696       5.03608416       0.03881775       0.03198842       0.09494785
Ar       8.65805211       9.94308779       1.22041456       0.04608106      -0.02430474      -0.01747109
Ar       9.97229804       0.75960914       4.42480356      -0.07247352       0.00813665      -0.02888055
Ar       7.37738343       1.45280124       9.21190142      -0.00241987       0.04736242       0.05255947
Ar      11.62756645      11.95635559       5.77399050      -0.01295864       0.02129633       0.14055206
Ar      16.09431509      13.66961952      10.73696034       0.08176442       0.03061489       0.01269539
Ar       1.34277115      12.82831762       7.67176249      -0.06318675       0.07000023       0.08196341
Ar       4.83943061      11.69775988       7.51116987      -0.05087906      -0.03448585      -0.12493789
Ar      12.41909043      11.77748995       2.41857769       0.02719453      -0.04886746      -0.02400978
Ar      13.94378240       0.54772939      17.03924754      -0.02082236      -0.04461096       0.00673151
Ar      14.06644116       7.67919369       0.71617644      -0.07585333      -0.01647709      -0.04536076
Ar       8.58842446      15.76800102       7.29024913       0.05646961      -0.00215726      -0.04684893
Ar       2.31985081      15.98795049       6.32570394      -0.00212783       0.00126455      -0.01178911
Ar      16.03361920      16.17432322       6.82975448      -0.05166459      -0.06793288       0.01200623
Ar       6.69383430       0.38285756      14.23409105       0.09989718       0.03675769      -0.08492522
Ar       1.45567203      13.55349962       3.49556748       0.04371920       0.05930291      -0.02674393
Ar       4.84177664       8.40671842      10.74416221       0.04940721       0.01266150       0.06620194
Ar       3.87675983       7.41241558       6.79745735       0.03255118       0.05020550      -0.02671646
Ar      11.05663525       8.65779483      11.30777547       0.02490354      -0.06343714       0.07868220
Ar       1.71104155       9.55740903       9.55351338      -0.00323332       0.07629587      -0.01937474
Ar      16.49205629       9.88722175      12.20940190       0.07099146      -0.02579626      -0.04769820
Ar       3.24196602      16.39380435      14.97575486       0.13354754       0.01672625      -0.04648159
Ar      13.63874720       7.47920055      13.84628636      -0.04068597       0.05332480       0.06849154
Ar      11.89530623       9.92921933      16.23575550       0.01081885      -0.03801526      -0.08126364
Ar      15.85265284      12.58058844      14.84020638      -0.11716424      -0.07833470      -0.06169030
Ar       2.68885132      12.62999048       0.38597332      -0.01837510      -0.02141166      -0.07274887
Ar       1.85297172      13.50143304      14.06790603       0.02978961      -0.04025104      -0.03748826
Ar      13.00833204      13.41732621       9.18327880       0.07783524       0.12027984      -0.10518378
Ar       7.49687652      10.88723687      11.34242014       0.04818048       0.03420072       0.09036962
Ar       5.38277243      13.37115748      13.70467327      -0.00015136       0.00231496       0.04834638
Ar      12.07975355      14.02461855      16.09873169      -0.03923219      -0.05630456       0.03926399
Ar       6.51354081       0.41140090       2.47334015      -0.03205508       0.01407109       0.11590288
Ar      10.68391113      16.58918079      10.47875880      -0.02868921      -0.07970405      -0.06988239
Ar      10.10961665      16.87095944      13.70929564       0.04461178      -0.06169661      -0.08198336
Ar       7.55961857       5.94609812      10.79308884       0.06291544       0.02137258       0.04750037
Ar       7.42871657      15.56610998      11.29413411       0.01626505       0.01202400      -0.07276348
Ar       3.90815740      16.46883328       9.23208202       0.00749047       0.05076346      -0.05366415
Ar      10.04794158      13.53344151      12.22853329       0.14726811       0.00348848      -0.04615935
Ar      13.12221653      11.60760714      12.61455377       0.00412609      -0.00499954       0.07076579
Ar      16.36637794      10.63751553       1.43172862      -0.02548257      -0.02719771       0.05786509
