108
Lattice="17.35 0.0 0.0 0.0 17.35 0.0 0.0 0.0 17.35" Properties=species:S:1:pos:R:3:momenta:R:3 pbc="T T T"
Ar      16.33437792       9.91137250       3.46913672      -0.10314413       0.02678570      -0.01043989
Ar       5.21377128       4.05056463      10.57204524      -0.03141611       0.01604321      -0.10426909
Ar       7.75386309       0.86628742       5.86971007      -0.02641848       0.06824912       0.04560187
Ar       0.85770627       2.37045709       6.59820542       0.04388522      -0.04260473       0.01764198
Ar       7.57861997       3.14735115      12.77537858       0.00303717      -0.02856783      -0.00915161
Ar       8.71787595      10.65919656      13.79558424      -0.02102560      -0.07904842       0.05293085
Ar      16.47610267       1.71880833      17.26440344      -0.08521552      -0.15059558      -0.02943765
Ar      13.66775715       1.85837025       8.86353180       0.00674280      -0.04458516      -0.04749950
Ar       9.17039292       8.56545982       8.01725735       0.01747606      -0.04053288      -0.03335333
Ar      16.42520392       5.29010571       5.19818864       0.00298235      -0.02439478      -0.05617244
Ar       0.86281919      11.73076754      10.20931820      -0.02416823      -0.04539989      -0.01836556
Ar      16.12243218      16.07201593       8.53578858       0.05778899      -0.07623816       0.04604461
Ar       5.86746718       8.84718090       5.39115646      -0.00379099       0.01760190       0.02158170
Ar       1.85946412       8.32697846       5.72795422       0.05711015      -0.01831714       0.03102334
Ar       6.93031264       6.96634339      11.84632259       0.09431369      -0.07880712      -0.00336417
Ar      10.10642908       5.51701479       1.15516429       0.03799168      -0.00865049      -0.01107384
Ar      15.96059045      14.92556403       4.80125372       0.05076071      -0.04220849       0.03270956
Ar      12.02331762       8.81988211       4.47058910       0.04228243      -0.02179940       0.02066345
Ar       6.61073689       5.66864021       7.25939812       0.01726721       0.02874026      -0.04665293
Ar      13.47624621      12.22210096       3.55056754       0.09040464       0.00412266      -0.12164971
Ar      11.36790016       0.24586571       4.43366686      -0.07735809      -0.02955774      -0.05267054
Ar       6.36035199       9.82158361       9.66385690      -0.11626724      -0.00495926      -0.02372591
Ar       0.06788696      11.79040526      14.74705386      -0.07534809       0.04504682       0.03849880
Ar       8.75067086       6.66632292       4.67354284       0.01828241      -0.02972751       0.07432158
Ar      10.37109488       3.05566363      15.29981521       0.07558680       0.03587708      -0.02285536
Ar       4.10360349       3.78650837      14.21535469      -0.03204316      -0.05944169      -0.03052169
Ar       6.72394957       1.44076935      15.65758544       0.10122651      -0.02016744       0.00156157
Ar       7.57130950      11.69431341      17.16045564       0.06911231      -0.01206357       0.05474024
Ar      13.30335979      13.48175214       9.86116783      -0.10982526       0.01649781      -0.01519022
Ar       8.57107250      14.98437647       9.63530971       0.13289963      -0.00578134       0.07390596
Ar       6.40919348       5.18869621      16.90554529      -0.04525380       0.13384981       0.07861180
Ar      13.89093861      14.33138393      15.22438857       0.05867865       0.03105613      -0.05014397
Ar       7.80482703      11.39905414       6.90975733      -0.02946249       0.01850864       0.04707665
Ar      12.29485079       6.60708204       7.82593404       0.07770133      -0.06827567       0.09714217
Ar      13.17254022       6.68460196      15.65522011       0.10133856      -0.06838136       0.05446397
Ar       9.03590334       7.09303214      15.24619214       0.04957284       0.11749710      -0.06453704
Ar      16.69620046       7.23631058       1.48511839       0.03198828      -0.09116574      -0.05724703
Ar      12.15214520       3.31175143      12.25976514      -0.08635306      -0.01303886      -0.03612645
Ar      10.93282324      17.08066357       9.41009827      -0.03221153       0.03115919       0.11793602
Ar       1.90373421       0.35587258       9.83738480      -0.03167777       0.08832423       0.01570715
Ar       1.61667639       4.16433442       2.74979407      -0.05580743       0.01699603      -0.06490042
Ar       7.65665367      15.60846842       1.07548033      -0.03532743       0.04120016      -0.02500266
Ar       4.61525707      14.37369816      10.08458327      -0.04878269       0.02525997       0.02781279
Ar       4.79731422       6.65203938       2.63865771       0.02780123       0.00467222      -0.00223907
Ar      14.98931097       8.62376090       6.99728118       0.04452370      -0.10900176       0.07046280
Ar      14.32518884      16.94610075       2.10117711      -0.06230556       0.06978467       0.00808396
Ar       4.23468048       9.08547484      12.45234821      -0.04507749      -0.10051960       0.01480835
Ar       2.43556711       5.80271129      16.92955887       0.05948461       0.10271304       0.00536601
Ar       2.43408724      14.36983682      12.94788214      -0.02025413      -0.04608544       0.04335419
Ar       7.47058596       0.90392940       9.47393966      -0.06979428       0.00573598       0.04988682
Ar      17.03479242       8.80280391      11.17816547      -0.10397328      -0.00945078      -0.01473162
Ar       2.02682724       1.16873503      13.81268720      -0.04241855      -0.01705112      -0.01886501
Ar       3.96873931       4.38998107       5.68936240      -0.02050820       0.05203897       0.02162829
Ar      13.07873881       9.35724574       9.80020310      -0.04665027       0.04965749       0.05059051
Ar       2.17032902      14.61893193       2.54241395       0.09155872      -0.00974123       0.02602182
Ar       3.33815242       7.27331097       9.19764130       0.07350185       0.04407667      -0.01077840
Ar       1.76586201      10.85266270       0.56072485       0.07971114       0.01269978       0.01200120
Ar      16.12202330      14.64135008      12.42824399      -0.14482238       0.02603177       0.04344517
Ar      15.30740527       4.06945799      13.77768015       0.00222116      -0.02865354       0.04053066
Ar      11.75202357      11.46726932       6.90408828      -0.04776450      -0.03834776      -0.06715655
Ar      14.58687576      11.46512736      12.16082619       0.02084363       0.00644127       0.06679674
Ar       4.54620756       1.76856413       7.65259732      -0.03587505      -0.05751088       0.06816638
Ar       0.23452765       0.14794183       3.06058342      -0.06350926       0.03347159      -0.02458054
Ar      14.33163021       2.14674235       4.84348555       0.04630060      -0.03959966       0.01738100
Ar       1.47730518       4.53319168      11.53990760       0.01517704       0.03370042      -0.11341764
Ar       9.44933185      14.46367947       6.21329959      -0.12520902       0.01737975      -0.04076276
Ar       4.04417790       0.47356010       4.28961222      -0.09047861       0.05202853      -0.03742529
Ar       8.54584041       2.81014226       2.99256604      -0.01795141      -0.03385594      -0.00699206
Ar       4.26741561      15.37831208      16.11703916      -0.00024315      -0.00293528       0.03402051
Ar      14.68685163      11.19684839      17.29827100      -0.06414276       0.00089594       0.00203770
Ar       5.48860051       2.97714083       1.94025429      -0.03943007       0.06436581      -0.11369390
Ar      10.64770752       2.87652542       7.15820917       0.00436615      -0.09309360      -0.05055335
Ar      12.40977834       9.52941445      14.30094438       0.11365085      -0.03974740      -0.01356068
Ar      12.97928204      15.62121077       6.94002644       0.00913840       0.01801027       0.05532770
Ar      11.58433439       2.13688984       1.04697167       0.00135275      -0.05555792      -0.02437871
Ar      13.45880218      16.85518335      11.68152463      -0.01707651      -0.00967870       0.01821110
Ar       5.93560929      13.54182372       3.79750147       0.03088201      -0.01890216      -0.04834906
Ar       5.16663333      12.24191075      14.54910134      -0.01669820       0.05421501      -0.02738119
Ar      17.30144805      16.21252685      15.36789421       0.00364741       0.05890002      -0.04729515
Ar      10.75735050      14.34457798       2.59997644      -0.00286228      -0.05759666      -0.00237525
Ar      16.25285554      13.88598238       1.30478112      -0.05222353       0.10590968      -0.10375676
Ar      16.28267973       6.00795710       9.14374316      -0.05440353      -0.00762359       0.07410883
Ar      10.25419725      11.69592186      10.51133493       0.04946829      -0.01535602       0.03124229
Ar      16.53799485       7.97868710      15.19464090       0.00506628      -0.02361945       0.05970079
Ar       9.51110252      11.37204755       3.64732690       0.05234404      -0.00470183      -0.00028402
Ar       8.28483921      14.55422430      14.50574919      -0.00718331       0.03110390       0.01474865
Ar      13.74574960       6.33310768      11.68640013      -0.00839774       0.08055064       0.07929626
Ar       1.37450363      12.05307785       4.99140700       0.06897287       0.00983629      -0.03810004
Ar       8.24176906       8.54756471       1.66827851      -0.02939842       0.00255970       0.07281671
Ar       5.22873480       0.00565321      12.53992309       0.02898780      -0.07926779      -0.07067047
Ar       9.53336129       4.90207126       9.80758899       0.01728368      -0.03426927      -0.02174681
Ar      11.18131478      12.20987369      16.42295491      -0.03003800       0.05051495      -0.02343876
Ar       5.62739048      15.79175044       6.97997154       0.10165061      -0.00347297      -0.05511284
Ar       2.01063478      15.44170519       7.10037562       0.02291114      -0.01537258       0.03148271
Ar      13.52155479       0.73328008      15.16427147       0.05693863       0.01170199      -0.02006958
Ar      12.18922110       5.12919631       4.42848710       0.05941129       0.02198915       0.01869916
Ar       3.75042511      11.04424976       7.78006935       0.00581061      -0.01723238      -0.14610399
Ar       4.53969698       9.08337447      16.69064811      -0.00860047       0.00287247      -0.00490215
Ar       4.43015546      10.52503291       2.99262167      -0.02358304       0.04862497       0.01739256
Ar       2.72626918       1.37268074      17.12876202       0.10563416       0.06295344      -0.00841225
Ar      16.57444804       1.61472366      11.37551649      -0.05675748       0.04401908      -0.03112682
Ar      10.96270077      16.15354351      16.59408744       0.03569495       0.07607724       0.06891509
Ar      10.48713197       8.16190950      11.58844678       0.10641833       0.01730875       0.01591959
Ar      10.12442260       0.26936084      12.71941201       0.03473012      -0.05210357      -0.06508491
Ar      11.15099329      14.33791301      12.91716193      -0.05849302       0.10508789      -0.02809663
Ar      15.69699115      11.85986110       7.67016407      -0.08533270       0.00741651      -0.00417890
Ar      14.39728566       4.09416744       1.02453092      -0.01839467       0.02825087       0.05967775
Ar      11.61359524       9.19373962       0.48275537      -0.03316654      -0.05175337       0.07787479
