108
Lattice="17.35 0.0 0.0 0.0 17.35 0.0 0.0 0.0 17.35" Properties=species:S:1:pos:R:3:momenta:R:3 pbc="T T T"
Ar       4.98934600       0.93889590       5.70913486      -0.09597380       0.02042902       0.04113242
Ar       6.17075366       7.63364807       3.44172138      -0.00787933       0.02730895       0.05068675
Ar       8.48706938      10.73176976       3.18462122      -0.00622761      -0.06759938      -0.04465621
Ar      14.22081154       7.42906924       9.86991639       0.02494889       0.00435049      -0.05089146
Ar       3.29283812       4.17289451       9.95560008       0.06856901       0.04596385       0.02439620
Ar       3.39246635       4.13423421       5.17105771      -0.01157105      -0.07130266       0.05779782
Ar      13.17306353       7.46675260      17.17111921      -0.05164379       0.01505826       0.01799243
Ar      16.71014944       4.33565422       9.86066213      -0.00614635      -0.00521347       0.06447123
Ar      10.40111172       4.97571737       4.52958418      -0.05648103      -0.05179614       0.07324228
Ar      16.76462730      16.77166882      13.44406391      -0.03070671      -0.02862365      -0.06039216
Ar      13.15922489      11.47047482      12.23418242       0.07649003       0.02384229       0.03005689
Ar      16.76754392       3.67673908       4.19887799       0.00746814       0.02044365      -0.02655592
Ar      13.54226190       4.12377926       2.44941346      -0.01054231      -0.03584965      -0.02167894
Ar       2.35615095       6.01252663       2.21079727      -0.00325544       0.00545208       0.08634207
Ar       7.60748967       4.23384369       1.96706656       0.02599545       0.00223350      -0.00048659
Ar       2.91474327       1.36056109       2.56317759       0.04693467      -0.03816677      -0.05031077
Ar       2.71990178      15.73592233       4.81786534      -0.08436570       0.01930163      -0.02629565
Ar      10.48972427       2.01557120      16.86189791       0.10346352       0.04362431      -0.01068616
Ar       7.17790488       5.79531964       9.66829561      -0.00817420      -0.05016337       0.03776384
Ar       0.91564953       9.72818685       1.56530373       0.02690566      -0.03590203      -0.00444714
Ar      13.49823022       7.03822158       6.35258991       0.03365862       0.03624089       0.00951028
Ar       1.30778675       1.36558743       6.87367488       0.02210186       0.13764782      -0.08955670
Ar       5.99664248       1.06044104      12.01581841       0.01723599      -0.06355015      -0.06326487
Ar       1.84613248       9.23891173       5.48174462      -0.02874231       0.05232440       0.05076187
Ar      11.46250029      15.23058810       5.16001157      -0.06576048       0.00104053      -0.07125986
Ar       6.95895909       3.64365800      15.80907170      -0.05197939      -0.05041859      -0.05648587
Ar       8.38961742       3.60936052      12.24556446       0.08844882       0.02184379       0.07836252
Ar      10.72747944       1.71539780      10.81854235      -0.05803457      -0.00645871      -0.03770824
Ar      13.21022708      14.91104638      12.32065403      -0.00209853       0.03541537       0.02769190
Ar       3.88214144      16.95541988       9.91654983      -0.04446423       0.00904008      -0.07183457
Ar      10.48282542       5.52259832       0.66864937      -0.01043867       0.02269498       0.02825812
Ar      13.30228445       3.58691013       6.92146754      -0.03683087       0.00139742      -0.10624795
Ar       9.18140426       8.16528416       6.35644659       0.01188622       0.07879199      -0.07641655
Ar      10.97868633       4.42985761      14.64218022      -0.02366122       0.03110750      -0.09230946
Ar       1.91636593      15.65973245      16.61281146       0.01912270       0.02947168       0.01119685
Ar       0.92872262       7.55790193       9.62275573      -0.03089049       0.01915856      -0.05505784
Ar      16.95083114       5.95908808      16.85608625       0.11281348      -0.03325038       0.04951492
Ar       0.50712255       2.20633207      16.01023892       0.01575557      -0.01274070       0.11878495
Ar       6.65184221       5.11074081       5.65107879      -0.08967134      -0.00358123       0.08314213
Ar       6.50000993       2.36840731       8.43790903       0.03965623       0.00475056      -0.06204275
Ar       0.11831071       6.30502299       6.49308313       0.08883322      -0.05500345      -0.03257746
Ar      11.64251467       9.77166528       8.77391100      -0.03345064       0.08259560       0.00828037
Ar       1.15199586       2.19851772      12.17190054       0.05213111       0.01699998       0.11774781
Ar       7.24943168      11.82823549       0.12219774      -0.11886066      -0.04370728      -0.00452872
Ar       6.14887911       7.67119587      12.99109826       0.01761545      -0.03063165      -0.00980674
Ar       0.55454463       6.55706192      12.97970304       0.15782241      -0.04398667       0.01066550
Ar       4.21960553      10.35363403      10.78185572      -0.05639243       0.01557250       0.06027088
Ar       3.98804436       5.05116214      14.06650822       0.01925791       0.02926830       0.00612372
Ar      16.59110206       9.80006381      15.76736431       0.00211634       0.06911485       0.06590308
Ar       2.98921518      17.31990884      13.87198626      -0.01886416       0.10645376       0.09054315
Ar      13.19097381       1.23600447      13.78208706      -0.04024252       0.02633811      -0.02278419
Ar      15.62499564       4.12545335      13.99157458       0.13204712      -0.06730782      -0.05122144
Ar      11.49978146       1.36431602       4.24623046      -0.03265642       0.08779118      -0.04912481
Ar       8.28086169       9.81268192       9.71581094      -0.02024896       0.09890342      -0.09701596
Ar      15.80833885       9.60732340       4.73652205      -0.07562569       0.11391148      -0.05616051
Ar      15.51522657      10.36161176       8.25753478       0.06667288       0.12384206       0.01969289
Ar       4.11796029      11.16504450       3.12934462      -0.06745533      -0.00093176       0.05653251
Ar       3.33727826      12.11967946      16.58897369      -0.03817320      -0.01421543       0.00378180
Ar      13.05323105      11.79602782       5.61083941      -0.04310918       0.00303356      -0.06392629
Ar       6.65676254      11.49752758       6.41431208      -0.03060696      -0.04588449       0.02821647
Ar       0.08494444      16.74646291       2.13085551       0.07613161       0.04217101       0.00924360
Ar       7.92964216      14.41262373       3.45721026       0.09669533      -0.00711536      -0.03567330
Ar       7.76553907      15.13402008      17.32276994       0.05727934       0.02297194      -0.02823193
Ar      16.10094226       6.96391908       2.73789703      -0.02123624      -0.05871215       0.02879162
Ar       3.05917362      12.82934841       7.03638904       0.00899567       0.17119745      -0.00236612
Ar      11.13432405      15.86645385       9.08451210       0.05871808      -0.03251344       0.03982743
Ar       5.32348411       0.13459111      16.80497837       0.03858286       0.03423642      -0.04640738
Ar       9.24694119      12.65456616      11.46687349       0.00338160       0.00493145       0.04266022
Ar      14.46101499      14.63568308       2.77408693      -0.01778911      -0.00813006       0.00900592
Ar       8.55814687       6.85045465      15.56427968      -0.08985152       0.01491391       0.00817003
Ar       8.08330984       0.55859120       2.48134692      -0.00836085      -0.08431610       0.04705216
Ar       9.84201417       2.35631967       7.71271308       0.01398741      -0.02031308       0.03346213
Ar       9.73328173      12.94409838       7.45277364       0.01719131      -0.15057229       0.00506714
Ar       0.34398874      16.09676061       9.76954307       0.02876865       0.10794193      -0.03013646
Ar      17.12826725      13.88223514       7.05129252      -0.04582200       0.02413913      -0.10329019
Ar       5.78305440      13.28119089       9.86798527      -0.00027846      -0.06588455       0.04416175
Ar      10.75503634      12.90318300       1.66211205      -0.07058861       0.04298505      -0.02485944
Ar      14.13141306       1.52870889       0.05755042      -0.00567997      -0.07302814      -0.03081383
Ar      11.40847586       8.27494664       3.01048500       0.07689233       0.03554266       0.05993461
Ar       7.69275505      16.06014539       6.56145800      -0.01486216       0.05217329       0.02384211
Ar       0.61093004      12.59297486       3.54790736      -0.00141390      -0.09427677      -0.04283235
Ar      15.24483796       0.30847698       5.84165762      -0.02421347      -0.02963530       0.01445999
Ar       9.27118608       0.26604208      14.03504262      -0.01131374      -0.02713593      -0.00734984
Ar      16.87260804      13.07378491       0.07447569      -0.04206065      -0.04211871       0.04307602
Ar      10.37824658       7.41551212      11.47760621       0.10663177       0.08343701       0.03781928
Ar       4.61580256       7.17442776       7.38714193      -0.00693363       0.13190756       0.00542914
Ar      12.85018264       8.10309048      13.54749223      -0.02773982      -0.04313927       0.05009631
Ar       1.27119731      12.59930609      10.59872898       0.04062537      -0.08939584      -0.01105359
Ar       2.94739278       9.14294808      13.96582809       0.03119028      -0.06630644      -0.12047848
Ar       7.01808015      14.73778792      13.56317224       0.01965104      -0.15491880      -0.03079100
Ar      13.19797511       4.36932405      11.41787980       0.01593232      -0.03380742       0.01380985
Ar       9.97844105       9.68110838      17.27409953      -0.06351393      -0.05622613      -0.09775194
Ar      14.29233106      15.09105792      15.42306749       0.00098781       0.02515864       0.05191837
Ar      16.80393898      13.04587093      13.51278374       0.00133890       0.00086718       0.01869837
Ar       3.23112704      13.72911957      13.45406980       0.01277821      -0.03065978       0.05467401
Ar      14.05003177      14.01449408       8.56107230      -0.05303238      -0.04595117       0.01556460
Ar       9.60214753       9.70221383      13.73920542       0.04036849      -0.02654275      -0.12943970
Ar       5.62783510       8.51331682      17.00551101      -0.02709252      -0.03321305      -0.12567248
Ar      11.63276841      16.36236085       1.08510742      -0.08328002      -0.00392621      -0.00253704
Ar       4.68932015      15.10242481       1.62664847      -0.02686525       0.06095034       0.06483888
Ar      15.09303494       1.02359217      10.34422372      -0.02589525      -0.08473622       0.02497250
Ar      10.42632951      13.45776341      15.56323639       0.07128048      -0.00177223      -0.02287694
Ar      10.56623455       5.62073976       8.65810884       0.04931747      -0.06546493      -0.00732737
Ar       6.41921410      10.94664518      14.09708212      -0.01443390       0.00324412       0.08385319
Ar       7.82957136      16.69216718       9.99476869       0.03079140       0.01716471      -0.05921966
Ar      13.40286569      11.66378614      16.23502426      -0.05156386      -0.00519789       0.07741001
Ar      16.17740826       9.62514114      12.09454696       0.03580553      -0.03947385       0.03411071
Ar      13.73330156      10.54591179       2.15843968      -0.08622779      -0.02792287       0.07402717
