108
Lattice="17.35 0.0 0.0 0.0 17.35 0.0 0.0 0.0 17.35" Properties=species:S:1:pos:R:3:momenta:R:3 pbc="T T T"
Ar       2.26083628       9.71387212       7.83237273       0.00500985      -0.05165075      -0.00381459
Ar       6.81030725       4.42913768       8.35185113       0.00861254       0.03150442       0.04922415
Ar       9.60133761      13.20180331       7.56531985       0.02350851      -0.01436856       0.04862293
Ar       2.95348642       3.30962379       8.85930459       0.03520819       0.01599309       0.07395290
Ar       8.86264501       5.13599130      16.84182140       0.00478035       0.01151972       0.01677699
Ar       7.46832947       7.63968778      10.31533483       0.08821501       0.02156156       0.10349829
Ar      15.47570902       3.72285728       0.19320513      -0.00984189      -0.00605936       0.01183253
Ar      14.65802185       4.11341160       6.71102108       0.03654168      -0.01142622      -0.09653678
Ar       9.87259978       6.69622936       6.44599553      -0.09074030       0.03896245       0.11555029
Ar      13.09812259       6.60218747       4.04022535      -0.00912596       0.14280235      -0.00064964
Ar       1.84850182      13.42854718       8.48531676       0.04069720      -0.00252875       0.03429159
Ar      16.09027723      15.95958959       9.34268683       0.05581276       0.05012187       0.07668213
Ar       4.29339101       9.59784230       4.86593131       0.02484366       0.01613512      -0.01434709
Ar       5.21422069       3.06215528       5.45724229      -0.09223568      -0.08502710      -0.10553314
Ar       4.48131371       5.99526231      11.99730625       0.08220808      -0.00908057      -0.05410523
Ar       6.07447126       4.12272428       2.19902451      -0.03265400       0.03314745      -0.04378938
Ar       0.30934160       1.32037188       2.12466967       0.00040663       0.02841960       0.01239618
Ar       9.25058615       6.15272930       3.02057504       0.03405268       0.05578688       0.02073024
Ar       7.71426242       5.43798865      13.23632756      -0.01850560      -0.00530291       0.08993994
Ar       0.93616816      11.10090567       2.84835534      -0.02543699       0.02540105      -0.06222835
Ar      10.80966084      16.88273295       4.14886814      -0.06387479      -0.04911842       0.09265190
Ar       5.38280158      13.96113446       7.82332047      -0.01461409       0.01596414      -0.01882067
Ar       0.60206985      17.25683573      13.16392576       0.04646728      -0.08238766      -0.01846561
Ar       5.48791695       8.08076161       1.27227218       0.06477009       0.16247195       0.09413965
Ar      11.29266942       3.13380206       2.28277262      -0.07013100       0.02592803      -0.14427036
Ar       6.53703312       2.31582748      15.26239828      -0.06106716      -0.03716924       0.01620041
Ar       8.88167813       1.19738096       0.18977390       0.03213734       0.00093639      -0.05351319
Ar      10.82209063      14.86092010      13.85976077      -0.04855470       0.01462675      -0.05969068
Ar      16.82878167      11.09783562       6.54107666      -0.06857492      -0.05520081      -0.13288007
Ar       7.10234717      15.13359962      11.02806062       0.03532904      -0.03089776      -0.07879521
Ar       4.81040529       5.77007356      15.82965044      -0.00905667      -0.05754108       0.03306489
Ar      14.13197721      16.92753397      12.22792686      -0.01755445       0.04775699      -0.02565576
Ar       7.76315298       9.41636122       7.10820991       0.07005140       0.00569824       0.10134357
Ar      13.88181392       7.24084196       7.78563951      -0.00682723      -0.06034865       0.03343386
Ar      11.97108191       6.55214134       0.35118669      -0.06269941       0.00436534      -0.08172769
Ar       8.45928349       8.86478887      16.62009929       0.00993028      -0.03531423       0.06695154
Ar       1.83696016       7.07909342       4.14216205      -0.12742156       0.07950768       0.01754274
Ar      10.70645266       0.85251738      11.62487848       0.02287442      -0.01073266      -0.03312529
Ar       8.65828129       0.55391765       8.63453554       0.00515100      -0.00331659       0.11828544
Ar      16.88708870       2.12498189       9.32804247       0.11433919       0.00877180       0.02447240
Ar      16.37162928       4.94091171       3.24336550       0.04945058       0.02334916       0.03371294
Ar      10.12610779      13.42228010       3.69125629      -0.02730074      -0.07364524       0.01228058
Ar       3.72357933      16.99733351      11.12586306      -0.08389105       0.04646421      -0.02444805
Ar       7.77024519      11.87653861       0.97015160       0.04637459      -0.00559934      -0.05894233
Ar      12.21320252      10.27461522       5.67672072       0.09543001      -0.08053735       0.01668554
Ar      16.36338406      15.97841417      16.79236024      -0.03026245      -0.01458736      -0.06027414
Ar       2.67814453       8.79618612      13.87052680       0.13854576      -0.02548702      -0.00640531
Ar       0.59547954       5.56203876      15.02275311       0.02766893       0.09893734       0.03846160
Ar       3.84297266      16.42618994      14.83239867       0.00232290       0.01939140       0.02614959
Ar       6.56112090       2.32292353      11.68096278      -0.03342511       0.05401870      -0.00804762
Ar      13.32843576       4.32820328      11.02251826       0.01623789       0.05840970      -0.06313848
Ar       1.70015416       3.18122211      12.36073793       0.00327941       0.10240392       0.03777328
Ar       6.11956681       6.54374128       4.81439926      -0.01721317      -0.03997784       0.01491896
Ar      13.61759737      12.14086683       8.56536591      -0.00439332       0.03677546       0.00168959
Ar       3.89055646      11.49193068       1.06036489      -0.10447326       0.01026342      -0.00909411
Ar       4.46689952       6.86911138       8.00765118       0.05741524      -0.10319852       0.03730373
Ar       2.06563706       8.51718832       0.01873047      -0.04238828       0.03079289      -0.04195656
Ar       1.34898994       2.31450700      15.97107771      -0.04745527       0.03582665       0.13802365
Ar      15.83496340       8.42340383       4.71548889       0.02407485      -0.04616637      -0.04585671
Ar      11.02195900       9.17949824       9.37806772      -0.06015348       0.01294266       0.00622012
Ar      13.70877595      13.25034639      12.34484585      -0.00266257       0.00425578       0.12879408
Ar       0.03382643      14.73945419       3.37234081      -0.08281624      -0.02222377      -0.00812443
Ar       1.89860268       5.36939398       1.16762502       0.08581742      -0.11824740       0.00559843
Ar      13.89383254       1.28196984       3.12191962       0.01168137      -0.04683625      -0.02739038
Ar      15.88623241       6.54451347      11.60262142       0.03853171       0.07978608      -0.05476445
Ar       7.49058953      11.50568174      10.55331867       0.08559117      -0.06054151      -0.02983994
Ar       3.36366950      16.89217169       4.23111345       0.05567018       0.07465007       0.02926988
Ar       7.71171487      15.74221851       6.17665040      -0.03543234       0.01978433      -0.11257694
Ar       6.80116385      15.73761248       1.89977148      -0.01969409      -0.10730574      -0.03146096
Ar       0.03754821      13.21880050      13.60426607       0.09082442       0.03450507      -0.03993039
Ar       4.37924493       0.09651484       7.48641744      -0.03435184       0.02624487      -0.08073199
Ar      10.05995297       4.86869854       9.79279694       0.01835900       0.02247900       0.00741851
Ar      13.77943958       9.50094438      11.67012806      -0.01398260      -0.04725442      -0.07699845
Ar      14.12882616      14.33884407       5.20945974       0.01433930       0.04589608       0.09052938
Ar       7.65898456       1.35819336       3.59420657       0.02593725      -0.05060984       0.03553462
Ar      11.89346417      15.09758389       9.91200028       0.02296707      -0.10022228       0.09479241
Ar       6.49426818      12.61330140       4.35099818       0.02599498      -0.00683083       0.08495957
Ar       3.88130196      12.71362172      14.94581873       0.01932796       0.01235931       0.04118614
Ar       2.86613422      14.88390169       0.58509100      -0.03847083       0.04746129       0.02904751
Ar      13.92023302      14.79605159       1.60793603       0.01706944      -0.07516032      -0.01515332
Ar      16.94397639      11.82451376      16.88533641       0.01279971      -0.07596546       0.06140950
Ar       1.60416106       2.73775693       5.58492294       0.11093811      -0.11609895      -0.03526399
Ar      10.13069661      10.68850877      12.65657006      -0.07084817       0.04129951      -0.07112977
Ar      16.77748820      10.88708661      10.07593481      -0.01990559      -0.05241324       0.05683636
Ar       8.84181977       9.42862367       3.78107010      -0.03133357       0.00138450      -0.01896618
Ar       3.82698632      12.64227264      11.48953273      -0.02147160      -0.01766893       0.05827433
Ar      13.86798108       5.56548992      14.74945758       0.05118908      -0.00299634      -0.09938951
Ar       2.72937665      13.47844965       5.03029921       0.01534348      -0.04680427       0.11520417
Ar       6.54147411       9.09805363      13.32205172       0.02774127      -0.07627109      -0.01002928
Ar       7.57816966      16.64959472      14.13405861      -0.04699036       0.09867497      -0.07495997
Ar      11.32969153       2.89404678      14.52718808       0.10195549      -0.05881010      -0.05607703
Ar      13.62881782      12.58426842      15.94135487       0.05044813      -0.09972425      -0.01793769
Ar       1.07147776      16.22754456       6.73785335      -0.00624828      -0.00851161       0.05434850
Ar      15.30363274       0.30314127       6.05939023      -0.01382958      -0.06881112      -0.04183792
Ar      15.69390195       2.33903242      14.07215340      -0.12471778      -0.05147830      -0.11163811
Ar      10.82791958       2.55339154       6.23399043      -0.16536792       0.07327958       0.08988370
Ar       0.11424818       6.69203923       7.13194984       0.00014782       0.05779448       0.01535535
Ar      16.23721299       9.02814293      14.07389205      -0.02785651       0.09674181       0.02121587
Ar      10.20360464      15.21226248       0.48942908      -0.10808899       0.01976892      -0.07833855
Ar       4.43055125       0.99831348       0.71344276      -0.02864312      -0.00407314       0.05006360
Ar      13.34940116       1.06401242       8.75155428       0.01327298      -0.00568716       0.02419000
Ar      13.00758985       1.12362631      16.98572324      -0.01481791       0.11204945      -0.06291594
Ar      11.07719575       6.46120894      13.17205852       0.01544349       0.01733890      -0.01044895
Ar       7.67501547      12.66000772      14.27545764       0.09382066       0.03020623       0.00055987
Ar      12.77075062       9.03332264      15.36565917       0.01595770       0.00927011      -0.04884130
Ar      14.68315031      11.60243072       2.85671982       0.00065003      -0.00849980      -0.01716110
Ar      15.24851097       8.70506736       1.17369376      -0.05435454      -0.05619238      -0.08077010
Ar      11.57107733      10.07141276       1.40280416      -0.08180962       0.08972014      -0.05048722
