108
Lattice="17.35 0.0 0.0 0.0 17.35 0.0 0.0 0.0 17.35" Properties=species:S:1:pos:R:3:momenta:R:3 pbc="T T T"
Ar       3.47040441       0.91628141       6.01757414       0.02958998      -0.00131378       0.10247887
Ar       5.30329514       7.31741915       4.68082815       0.02435852      -0.03173624       0.11081532
Ar       8.16060563       9.63729670       2.37724768       0.05092815       0.01570526       0.03963296
Ar      14.76607663       7.80769761      10.31204888       0.04028926      -0.00663482      -0.08097498
Ar       3.79678242       4.53999263      11.52683829      -0.08225726       0.05044274      -0.07634649
Ar       2.32667143       3.68544081       8.20882004       0.03977811       0.02629780       0.14610032
Ar      15.57872545       6.09034058       0.71238710       0.04299190       0.03498425       0.03572102
Ar      16.94099588       4.22845834       9.98437483      -0.07661716       0.04341503       0.06233970
Ar       9.36207258       4.94461305       4.25353508       0.04439782      -0.03156756      -0.05331880
Ar      16.10116417       0.77273347      12.30844331      -0.02187748       0.12032439      -0.04436309
Ar      14.28402321      11.51410085      10.44066684      -0.01187718       0.07000409      -0.05160400
Ar      16.02075326       2.14740725       1.92809301      -0.03037790      -0.07756992      -0.05166371
Ar      12.78068627       4.23752659       1.49203109       0.03781416      -0.03784432       0.04140521
Ar       2.65219673       4.49133139       4.64974068      -0.07249117       0.01202628      -0.05549152
Ar       5.95987805       4.78840016       2.54715911      -0.02857477      -0.08295595      -0.12352679
Ar       3.57154242       2.12124368       2.17288308       0.05479142       0.02645626      -0.01200728
Ar       0.49411221      15.78855854       5.01471843       0.02116632      -0.03648447      -0.04101842
Ar       9.87777720       2.72084046       1.15114366       0.01820447      -0.00089280       0.11878499
Ar       7.79017794       5.67787468       8.41161070       0.01656607       0.00642715       0.07718831
Ar       1.62224459       7.72570983       3.24788705      -0.11797027       0.12793690       0.00644737
Ar      14.20443965       8.42866385       6.25824537       0.00876860       0.02291681      -0.05695962
Ar      17.11892129       1.95539158       5.66069024      -0.00405037      -0.02544787      -0.06394814
Ar       5.14858496       1.28756020      12.37801942      -0.03501804      -0.01571085      -0.07803456
Ar       2.67961976      10.32383679       5.89116357       0.04244390       0.00996078       0.03371708
Ar      11.68593348      14.67073768       4.95991855       0.00159579      -0.04397509       0.06479483
Ar       6.60752009       3.41468787      16.82773125      -0.01988628       0.06842204       0.02651210
Ar       8.40170587       4.95703862      13.93724972       0.04837025      -0.02967809       0.04101494
Ar       9.78298423       3.16016743      11.19796148      -0.06492390       0.05855077       0.03744039
Ar      12.58541982      16.31283508      11.10666944      -0.03502311      -0.05858156      -0.02354725
Ar       4.15221312      15.66267852      10.37272601       0.04792154      -0.05358161       0.06230607
Ar       8.73230053       6.05396727       0.65149163       0.04528427      -0.04301657       0.04762556
Ar      13.83480911       3.78439584       5.95833385       0.08070336      -0.01026550       0.07737447
Ar       9.40335912       8.17651817       5.93286718       0.06086822      -0.04857075       0.08746370
Ar      12.26901535       4.42557932      15.58532358      -0.05495616      -0.07163151       0.07645420
Ar       1.14641908      17.33209179      17.28937078       0.03749738       0.01269451      -0.05081180
Ar       1.57836031       7.35561179      10.59549401      -0.00458729      -0.01077547       0.11367212
Ar       2.24373212       5.08536946       0.62968143       0.08141798      -0.04256520      -0.02574384
Ar       3.46157394       2.35532489      15.38024473      -0.01911202       0.12867882       0.10714007
Ar       6.19185331       3.37639452       5.96499612       0.00827875      -0.15082181      -0.09769371
Ar       6.27197597       2.22660275       9.29316373      -0.01504113       0.02742035      -0.05809966
Ar       0.71716633       7.09613525       6.98867929      -0.11106300       0.03884048       0.04469996
Ar      11.66046867       9.89083004       8.73702630      -0.05381955       0.05759446      -0.06869765
Ar       2.15407587       1.23981936      10.64533961      -0.03124465       0.02820149       0.04105337
Ar       6.69054854      12.58108212       0.12387691       0.00167492       0.02880790       0.04567109
Ar       6.01367349       7.19793308      11.54459837      -0.04319191       0.00505106      -0.02058708
Ar       0.49527088       7.31832121      15.10476701       0.04566470       0.08860611       0.09881334
Ar       4.46405705      10.26240537      10.34543002       0.08021513      -0.01200943       0.03974509
Ar       5.31394753       6.34969975      14.88807583      -0.10728970      -0.02665277      -0.06273107
Ar       0.47745309      10.74950234      15.52521087      -0.01255079       0.06743701       0.01368503
Ar       2.03824332      16.70972688      13.68724079       0.03848774      -0.00177433       0.01031509
Ar      12.46461681       1.41356336      13.56596264       0.04149532      -0.10824265       0.03706891
Ar      16.45166677       3.61197783      14.68486143       0.06529922      -0.01159993      -0.04730988
Ar      12.37224020       1.21243043       3.17220465       0.01732781       0.01243306       0.01507818
Ar       8.59845720       9.80890944      10.35553035       0.06021333      -0.00266402      -0.02443272
Ar      16.48537834      10.13295018       4.41007854       0.03957865       0.08744591       0.02716541
Ar      16.73568316      11.10010090       8.05410355       0.04969357       0.02570111       0.02499483
Ar       3.81123439      11.37576103       2.60763399       0.07993932      -0.04203476      -0.02337680
Ar       3.06618939      13.79438044      16.52907325       0.01243289       0.02428692       0.02810044
Ar      11.34397320      11.18019331       4.35231471       0.03774357       0.05795782      -0.03605613
Ar       6.03530435      10.41040024       7.33170818      -0.02984802       0.05823111       0.06804105
Ar      15.11571668      15.96948123       2.45881786       0.03306838      -0.00546019      -0.08030056
Ar       7.26510726      13.09154117       4.08617208       0.03576893       0.07713417      -0.01516076
Ar       7.77069224      16.25434957       1.94222765       0.07628617      -0.00522936       0.07484201
Ar      15.70613238       6.04763201       4.14908709       0.06590866      -0.02466984       0.07086608
Ar       3.76187781      13.48792993       5.71255565      -0.01619470      -0.02894436      -0.04626884
Ar      10.17094448      16.30414611       7.63930683      -0.06502649      -0.11109776       0.00455400
Ar       5.04206292      16.98991871      17.26248124       0.00641903       0.03058282      -0.05051634
Ar      10.29528314      13.51154437      11.38787097      -0.04625035      -0.08361042      -0.07636475
Ar      13.56874825      12.33883720       1.51198257       0.08565124      -0.05825345       0.00356119
Ar       7.73814309       8.79563671      14.76717697      -0.07578639       0.03039663       0.03919092
Ar       8.71136132       1.41734794       4.04873935       0.10423856      -0.01336508      -0.01478479
Ar      10.47540026       2.59506755       7.16988320      -0.00113615       0.08605546       0.07151003
Ar       9.12119791      11.80709334       7.09533540       0.04789002      -0.03412188      -0.03040115
Ar      16.81945759      16.28292382       8.91198999      -0.01873703      -0.11798189      -0.01541010
Ar      15.00324546      13.02545086       4.78321754       0.04356786      -0.01389845       0.02310713
Ar       6.74053435      13.22869461       9.95816783       0.01759474      -0.01746555      -0.04430793
Ar       9.89964461      12.74033576       1.27918778       0.01565501      -0.06560306       0.04951177
Ar      14.91933448       0.19108117      15.97235396       0.00850441      -0.10302484      -0.05702692
Ar      11.22884639       7.86260113       2.89318743      -0.10789642      -0.01802822       0.06385985
Ar       6.23300915      15.37941099       7.26045074      -0.06002725      -0.02069611      -0.07353479
Ar       0.44965169      13.31763106       2.65081837       0.03493360       0.10891690      -0.05987572
Ar      14.44171614      16.60003665       5.91802216       0.03299200      -0.07700215      -0.03694030
Ar       8.33114931       0.41167210      15.55509351      -0.14589415       0.00911523      -0.10210839
Ar      16.49661778      13.97154350      16.61796612       0.02505730       0.06432745      -0.12998003
Ar      11.16336563       6.97650514      11.65232980      -0.03651422      -0.08607751      -0.13773639
Ar       4.34372917       6.78951907       8.21686681       0.01113971       0.07167655      -0.04084281
Ar      14.10215911       7.07197174      14.24788903       0.04500119       0.01229758      -0.00656792
Ar       2.20465474      12.73381360       9.01286471      -0.02650448      -0.07473892       0.05050706
Ar       4.39077387       9.80333757      15.46658654      -0.06374536       0.07926339       0.07047803
Ar       6.07831629      15.26956544      14.34957810      -0.00244572       0.01795720      -0.04682058
Ar      13.87199405       4.57047760      12.10761154      -0.04513850       0.03584765       0.05192457
Ar      11.71190030       8.61908291      16.41995712      -0.04073988       0.05108867      -0.07018155
Ar      13.49176603      14.52262220      14.17372432      -0.06453717      -0.05767807       0.07468028
Ar      16.97196650      13.93625015      12.43192338      -0.08814664       0.09861759      -0.01426566
Ar       2.83354107      12.23322317      13.01427489       0.03948806       0.05373745       0.03289781
Ar      13.14321107      12.81218680       7.49676910      -0.03360382       0.02316399       0.01031771
Ar      10.87299266      10.93937532      13.68990711       0.02508375      -0.01678326      -0.08634281
Ar       5.26393190       7.90155736       0.99948891      -0.04904594       0.06316411      -0.01221552
Ar      11.80698089      16.26730320       0.18786517      -0.05835005      -0.01871816      -0.02848900
Ar       3.93268598      15.95713408       3.04206947      -0.05223426      -0.05475414      -0.02698414
Ar      14.05161232       1.32938184       8.83442949      -0.01340053       0.00684203      -0.01392775
Ar       9.64672575      14.04179863      14.89065527      -0.06695921       0.02390006       0.01490228
Ar      11.65233105       6.25480632       8.12270381      -0.05831143       0.02045816       0.05734921
Ar       6.51761062      11.80753451      13.42598916      -0.03106697      -0.01898659      -0.02062178
Ar       8.02517601      16.74723879      11.13265513       0.05663179      -0.00386581      -0.02527932
Ar      14.42230192      11.34782807      15.34636292       0.01620843      -0.00826026      -0.05938469
Ar       0.11976345      10.09027395      12.09305227       0.08356881      -0.06526137      -0.00271393
Ar      16.39584669       9.50700714       1.03134758      -0.01310783      -0.08762546      -0.02122113
