108
Lattice="17.35 0.0 0.0 0.0 17.35 0.0 0.0 0.0 17.35" Properties=species:S:1:pos:R:3:momenta:R:3 pbc="T T T"
Ar       0.07522393      14.31334720       8.08651056       0.00025268      -0.08631317      -0.02415058
Ar       8.67546045       9.81731305       4.06928835       0.09010195      -0.00425970       0.07826511
Ar       5.69768351      11.05065763       2.13362960       0.05519655       0.07374777       0.05264215
Ar      16.18332181       9.13318506       8.67926780      -0.03178601      -0.07231332       0.01490532
Ar       6.68473642       3.19076093      13.77161996      -0.04894298      -0.06985768       0.03795847
Ar       3.76157547       4.97543029       8.72344022       0.01428600      -0.00265180       0.00852712
Ar      17.31388160       5.17849447      15.28944150      -0.00004468       0.03227977      -0.14022931
Ar      15.21355569       5.35574702      10.07410367       0.01106056      -0.02382010       0.01375609
Ar      11.32321582       3.62930413       5.43555562       0.04265046      -0.05200491       0.02696668
Ar      13.51445263       2.45659851      10.76928811      -0.04987530       0.04297718       0.04230281
Ar      14.15850277      13.70439135       9.82941968       0.00908330      -0.00989637       0.00021234
Ar      12.31090667       1.88144515      16.50381254      -0.01280051       0.03930773      -0.04050179
Ar      11.94593444       7.46425641       3.81454797       0.01800934       0.02533387       0.04546516
Ar       8.53788080       4.13257045       7.44199294       0.12781299       0.03279233      -0.08603069
Ar       6.54795880       6.99880948       6.03280325      -0.13992706      -0.01101574       0.04012610
Ar       2.51739735       0.44317376       2.78405787       0.09408983      -0.02519647       0.07813494
Ar      16.01159950      16.85078230       4.44834764      -0.03526941       0.01039063       0.00796236
Ar      10.31897694       4.67965536       2.11445003      -0.04797468       0.10282590       0.07405829
Ar       8.14716560       5.34560930      10.89048092       0.06275990       0.00338612       0.04079287
Ar       3.44991841       6.97481827       4.82635720      -0.02424800       0.06878574      -0.04671306
Ar      13.91084394       5.92617374       6.73841865      -0.01853750       0.07822212      -0.00761625
Ar       4.44487744       1.93692618       5.95311027      -0.06569110      -0.08877759      -0.00331164
Ar       1.62692315       2.53194989      16.40945555       0.02734979       0.04020971       0.02501699
Ar       4.50159952      10.64233219       5.63605367      -0.03067199       0.03465578      -0.06284085
Ar       8.15470669      13.67611026       2.65823632      -0.02785791      -0.07265547      -0.00023698
Ar       6.53688498      16.95427465       0.25337885      -0.09845249       0.04256153       0.01460695
Ar       8.58252127       2.31690303      16.93682044      -0.05147055      -0.12936925      -0.03065666
Ar      10.50398180       2.82564891      13.56138164       0.04940582      -0.03611400       0.03480282
Ar      11.04316869      15.21696255      10.19903521      -0.02907322      -0.04801156      -0.00438765
Ar       3.12928459      15.61147076      10.64402616       0.07296109       0.07024189      -0.02107977
Ar       8.36631809       9.57636488       0.13444926       0.01069582      -0.05969062      -0.07196891
Ar      13.54224615       2.92796272       2.69356719       0.00069915      -0.00609658      -0.06062665
Ar      10.12608849       7.64639897       6.67716645      -0.09646867       0.07608702       0.01373455
Ar      13.68738057       5.51265816      17.31173037      -0.15105374       0.02336171       0.18080291
Ar      15.91504583       1.60985977       0.34582632      -0.05203313       0.00263650      -0.01735546
Ar       2.11090882       9.06733257      14.05566942       0.09070558      -0.01256468      -0.06755484
Ar       2.29481066       4.56402577       2.65047291       0.05828920      -0.03138020      -0.06186077
Ar       3.34401571       5.13654109      13.94921311       0.01921104       0.03548529      -0.08489728
Ar       5.17877725       2.15638353      10.56023366       0.00785511       0.04941053       0.02788454
Ar       3.86452591       1.22193472      13.95515972      -0.01294675       0.04786374       0.02148067
Ar       0.47823988       5.39922403       7.28339478       0.02892810       0.05242676       0.03400079
Ar      12.65853286       8.65167466       8.75934275       0.02020687      -0.04017112       0.02678488
Ar       2.40152841       1.43299816       8.88544281       0.06877042      -0.01672946      -0.04575356
Ar       5.60720551       9.69030930      15.09339176       0.03526538      -0.05478444      -0.07700328
Ar      10.10580596       5.70989343      15.91095408      -0.02109154       0.00394376      -0.08599106
Ar       2.55016999       6.58387294      17.01483401       0.03611190       0.05986420       0.06844937
Ar       5.60333306       7.47968572      12.09290573      -0.02870351      -0.01409541      -0.08347112
Ar       4.71159195       3.62557094       0.34370190       0.03429921      -0.02362551       0.02691850
Ar       2.44310984      13.98186983      14.57213783       0.01934227       0.02041926      -0.00452618
Ar       0.78570092       3.57908826      12.26060147      -0.01464513       0.11568978      -0.03303454
Ar      12.56458785      16.68036421      13.67841394      -0.06769879       0.03838588      -0.06110296
Ar       1.44550592       7.63586486      10.59405712       0.06318548      -0.04035916       0.00478198
Ar       8.90120039       0.97343426       3.22160715      -0.07172447       0.05798848       0.05149631
Ar       9.32786604       8.60292835      10.43309658       0.04478306      -0.03721374      -0.07355783
Ar       1.40242192       8.70849049       2.16882290       0.04452810      -0.00326084      -0.07892666
Ar       1.39846946       9.19840060       6.21486128       0.04456103       0.01975583       0.03143274
Ar       3.05329976      11.17065479      16.92321098      -0.09513929      -0.02216761      -0.04838826
Ar       0.94501927      16.30369063      16.21479601      -0.02634443      -0.12120618       0.02988185
Ar      15.10302174       9.02292348       5.22860991       0.01858408      -0.10096907      -0.01088418
Ar       7.84678959      10.00617685       7.55515571       0.07723693       0.07059545       0.05521209
Ar      14.63580419      15.22884115      16.39487773      -0.00256727       0.01406176       0.03800722
Ar       5.96054507      16.64377457       3.81532136      -0.02315213      -0.01420974      -0.04543319
Ar       6.65528388       4.09067780       3.90059739       0.05033575      -0.00692035       0.05924172
Ar      16.08540884       6.25095854       2.58401608      -0.01113799      -0.02382053       0.06127262
Ar      16.02139031      12.34915523       3.49539760       0.03841291      -0.03224012       0.08794747
Ar       7.43549227      13.10124398       6.12870547      -0.06173535      -0.02765953       0.00902718
Ar       4.08756555      14.44124978       0.86848223      -0.03640663       0.00847692       0.03238296
Ar      10.43953383      11.66776895       9.17472852       0.02514673       0.01757486      -0.00610334
Ar      12.39408843      13.96197277       2.76727128      -0.07406461       0.07506274       0.05726565
Ar       9.25810282       8.86403735      14.06319976       0.05179163       0.04187291       0.02674149
Ar       7.59000013       0.33360781       7.51952145       0.03346350      -0.08140198      -0.01555136
Ar       9.40725253       2.15355552      10.47484136      -0.01463482      -0.10867656      -0.06050269
Ar      12.08238880      11.36404334       5.88412358      -0.03159960      -0.06732287       0.02376234
Ar      14.15636452      14.33517288       6.54000101       0.01764454       0.01130315      -0.01841791
Ar      12.58516697       0.04669337       4.64940611      -0.01389516      -0.03770026      -0.02609384
Ar       7.73196560      14.48403298       9.62989403      -0.01805234       0.10359925       0.00078768
Ar      11.75688745      13.26280580      16.14163935      -0.06401881       0.06021829      -0.02498842
Ar      15.64064461       1.00105745      13.83395038       0.03609935       0.00404083       0.03290764
Ar      13.18177368      10.43925156       2.01075089       0.05141841       0.06809173       0.05901938
Ar       2.64256683      16.14576109       6.25893162       0.03350248       0.04986697      -0.02634303
Ar       0.29031950      13.68934834       0.66658951       0.02316920       0.01715715       0.01783816
Ar      15.32450616       2.70608716       5.69858952       0.03813146      -0.12043739       0.04385843
Ar       8.77695065      17.16626194      14.53205161       0.01092630       0.01333139      -0.00071958
Ar      17.04494451      14.56131624      12.15479689      -0.01926739       0.04917135      -0.02250466
Ar      11.38458183       6.02899740      12.56960026      -0.05937467      -0.08945183       0.10171378
Ar       4.63235118       9.13988341       8.93454426      -0.04073708       0.05517052       0.02887538
Ar      15.52243400       7.59683794      12.74436924      -0.08564652      -0.09449120      -0.08751196
Ar       4.53854497      12.96584000       8.33142350      -0.01255289       0.06007995      -0.01643348
Ar       6.57396716       6.16024217      15.30559326       0.07889697      -0.01950782       0.06239531
Ar       5.89114431      14.98330383      13.29630445       0.03299699      -0.02261979      -0.03896213
Ar      14.21492931       4.42714191      13.58803192       0.00568250       0.12381234       0.00219183
Ar      12.54114699       8.54331340      15.88966924      -0.03354401      -0.06901655       0.03695552
Ar      13.83624706      13.30939209      13.38324842       0.00188569       0.01788691      -0.02095612
Ar      15.92174112       0.19880779       9.31786841       0.01901261       0.13055144      -0.03319228
Ar       2.43266499      11.62504489      11.00252952      -0.02604062      -0.01818958       0.00854504
Ar      10.14105308      15.48557938       6.65410422       0.04316313      -0.07944082      -0.02706078
Ar      12.55406971       9.56819136      12.70360952      -0.07229047       0.12413064       0.12401221
Ar       5.73053878       7.21883768       1.71753714       0.00574667      -0.09513888      -0.09204315
Ar      10.47181637      16.48988550       0.89378705       0.02360991      -0.06356642       0.02233962
Ar       2.31467458      12.83325109       3.52659669       0.08848970      -0.00059187      -0.06026289
Ar      12.12740517       0.63297897       7.96825603       0.04813901       0.00983130       0.00814180
Ar       7.57355890      13.41506573      16.50795577      -0.03087113      -0.00419284       0.08675188
Ar      11.53489340       5.23721460       9.30070996      -0.10257101       0.10418689      -0.02907855
Ar       6.86950780      11.31683636      11.14009007       0.02197218      -0.04058028      -0.09693863
Ar       9.58197273      13.50810853      13.15541425       0.03471143      -0.05188643      -0.04811845
Ar      14.90169799      11.52017940      16.30908582      -0.00195169      -0.01927696      -0.08703323
Ar      16.52141156      11.43031374      12.99458289      -0.04366151       0.01170900       0.06163642
Ar      16.48682849       8.39094218      16.51832753       0.01761848      -0.03790819       0.01592594
