108
Lattice="17.35 0.0 0.0 0.0 17.35 0.0 0.0 0.0 17.35" Properties=species:S:1:pos:R:3:momenta:R:3 pbc="T T T"
Ar       1.45979069      10.30165236       5.29617456       0.05176167      -0.02194492       0.01061540
Ar       2.29276215      17.03333266       7.63158363       0.02832098       0.08082235      -0.05430796
Ar       2.84730802      11.87748949       9.48972117      -0.02255292      -0.01815263      -0.00659963
Ar       9.76026492       3.11108948       5.15320549       0.01644796      -0.03154162       0.01866339
Ar       4.97730864      17.25424321      13.29912755      -0.01864775      -0.09728745      -0.04656835
Ar      15.60160857      13.65916506      15.29360515       0.03229474       0.07248898      -0.05423987
Ar       0.54219290      15.95968255       0.84649080      -0.00341607       0.03278776      -0.04800297
Ar      14.13569029       4.62004918      10.70528408      -0.07278844      -0.03067852       0.02770660
Ar      12.70965866       2.84542800      14.27413170      -0.03347106      -0.07545019      -0.00897416
Ar      11.97242780       4.78332744       1.64929375      -0.11301226       0.10062082      -0.00007120
Ar       4.08304268       6.50024679       8.97241349      -0.04030776      -0.02199628       0.05932300
Ar      16.49046391      11.25811094       7.74322291      -0.02081857      -0.02898953      -0.03097301
Ar       1.15772851       4.45720807      10.43492927      -0.03823509       0.02369295      -0.00071811
Ar       2.94737061       6.54423377       5.41462653      -0.04702958      -0.03713294      -0.00375473
Ar       5.21366293       1.21363093       9.54655667       0.06092860      -0.06529044      -0.01498174
Ar       4.77273062      12.32506085      15.55306546       0.00553170      -0.09150217       0.08985927
Ar      14.73343659       0.04305933      15.12295506       0.01082299      -0.05806449       0.10987564
Ar       1.35978407       2.19357957       0.72844316       0.03084683       0.02145710       0.07468418
Ar       2.90899046       3.11608019       7.46972170       0.00777129      -0.05665185      -0.08962810
Ar      14.09226466      10.48373317       4.83025492       0.00079110      -0.01937118      -0.02101912
Ar       9.78494401       5.24371820       7.96106092       0.02810802      -0.01463934       0.05075747
Ar       7.25694955       9.29913610      10.33714818      -0.04884735       0.13693351      -0.07683553
Ar       7.35065945       5.35284851      10.69781693       0.03591885       0.01077945      -0.05334643
Ar      10.07492905      11.01197181      11.39651591       0.07367460       0.01665786       0.04806412
Ar       6.93556598       7.83626873      17.12117678       0.00142137      -0.05818336       0.01700400
Ar       2.90507558       4.51950768      15.13182255       0.02717450      -0.06403122       0.04251489
Ar      10.94663234      13.99989396      16.93452547       0.03040379      -0.00574559       0.07390596
Ar       8.64053144      11.19853123       0.66932322       0.02144997      -0.00706043       0.14288615
Ar      13.77469615      15.87283071       8.63258201       0.05686085      -0.04187785       0.00279747
Ar      10.71538773      14.40259308      10.17854728      -0.02025179       0.01103672      -0.03154891
Ar       3.84551124      16.35284633       3.22631078       0.01400027      -0.05123279       0.00979486
Ar      11.75059407       1.51073580       0.19850856       0.02113228      -0.03522927       0.08651623
Ar       5.15254769      11.61114037       5.83661562      -0.07796367      -0.03650146      -0.11558575
Ar      10.52669024       7.47657631      11.72922078      -0.03418934      -0.02164081       0.05594122
Ar       3.61434248      10.18322686      12.64245009       0.08087784       0.04359378       0.09540469
Ar       9.65999837      13.99470508      13.43002357      -0.01937331       0.14874283       0.03899521
Ar       4.50981857       3.53621432      12.18360821       0.04789542       0.05254824      -0.00581774
Ar      10.06494012       4.49766725      16.25809270       0.00265889       0.09407554       0.05870534
Ar      12.21894572       1.52952111       8.11050786       0.03645440      -0.04951029       0.00973749
Ar       1.79388961       0.56355870      11.14664711      -0.04578249       0.07829092      -0.05152349
Ar       3.64659374      15.86628030      16.34987281      -0.04981084      -0.06944836       0.13663353
Ar       4.69105517      15.20981378       9.45660253       0.07812172       0.03790907       0.03515452
Ar       5.87104912      13.08401418      12.25407489       0.03046280      -0.11739039      -0.06877152
Ar       0.64922528       0.74322370       4.32572229       0.01009570      -0.01772252      -0.00661935
Ar      16.90679961      12.10148948      12.41139346       0.03606477      -0.01818453       0.02831288
Ar      14.32320485      15.01644786       0.94901328      -0.00871124       0.02103015       0.01547907
Ar       7.05571811      10.29378977      14.04583506       0.05752625       0.02969747       0.00229926
Ar       7.63079115       5.90680249      13.98770380       0.01109770       0.03072370       0.11388491
Ar       2.62658221      14.11774132      12.68289428      -0.08728031       0.03341998      -0.02154672
Ar       2.97608281      14.07127071       6.01593202       0.08580436      -0.02843872       0.02629896
Ar       6.98583752       8.77684561       6.03716639      -0.04653120       0.04629003      -0.03124341
Ar      13.64037575       6.35470904      15.89651641       0.04371219       0.04583928      -0.09512033
Ar       2.06820721       9.58652150       1.51319792      -0.00799045      -0.11601726       0.02172626
Ar       0.00963791       9.18609693      15.88893157       0.03264512      -0.04214676      -0.01869870
Ar       5.71648531       2.46818236      15.85048663      -0.09512945       0.00379602       0.00675924
Ar       6.02950643       0.81137698       6.16954460       0.05350537       0.11258261      -0.05897471
Ar       1.90948061       5.82037104       1.73652567      -0.08267126       0.03130299       0.06228079
Ar      16.55493855       1.02399112       8.85846383      -0.01350088       0.01102663       0.08304360
Ar      16.38624598       4.43942548      13.70102413       0.02349228       0.04532231      -0.02051539
Ar       6.74655352      14.92155819       4.82954746       0.01231713      -0.04662755      -0.10702783
Ar      14.23372582       0.89699505      11.48119563       0.08575805      -0.01911706       0.00520871
Ar      11.94113894      12.59269552       7.16100387       0.03522606       0.01501421      -0.05539914
Ar      14.21237396       0.10978523       5.65604895      -0.01453454      -0.02115265      -0.08755688
Ar      11.84024575       8.49401742       1.98866768      -0.08078102       0.09724739      -0.00726677
Ar      16.69113259       5.12556060       7.64643726       0.05835909       0.01525598      -0.06177647
Ar      10.03047954      15.70586477       6.95943921      -0.04072918       0.02987000      -0.04435744
Ar       4.69491589       3.56591974       2.68368740       0.00686528       0.02047377       0.07301220
Ar       7.27885364       0.91333178       1.49841877       0.05007065       0.07384917      -0.04422107
Ar       5.61739010      10.60330090       2.84968253      -0.03460847      -0.06776817      -0.04477312
Ar      14.84178057      10.82840747       0.07372929       0.01066300       0.10921455      -0.05104534
Ar       8.27826788       2.14474225      13.04652515       0.14062951       0.07310189       0.05786274
Ar       6.32743707       5.11300738       6.01695491       0.03789107      -0.00722609      -0.03638367
Ar      16.54534864      15.84655842      12.47076157       0.02952722      -0.06149880      -0.03553392
Ar       9.12032110      12.03072093       4.08523481      -0.09289127       0.00214037       0.02840664
Ar      10.12674497       8.22940007      15.59987276      -0.06810833      -0.05655315      -0.02253739
Ar       0.69951816       7.32310250      12.78915474      -0.14808192      -0.01595703      -0.04395338
Ar       2.88498218      12.92491610       2.56647262      -0.00943424       0.01180536      -0.07926298
Ar      10.82682387       0.23767858      12.20904264       0.04235174      -0.08783518       0.01432871
Ar       1.43902566      12.66099222      16.72924068      -0.02879189      -0.03551375      -0.02166144
Ar      16.87746049      15.07827958       5.54698684       0.07066111       0.07926082      -0.01194423
Ar      15.87956737       6.96771252       1.07604978      -0.00465124      -0.00478453      -0.05544424
Ar      10.76615361       4.04769260      11.26646071      -0.06795795      -0.04011794      -0.00034481
Ar       8.38594185       1.69370907       8.64880119       0.00989878      -0.06341502      -0.02673628
Ar      16.30866946       7.74115336       4.46039165      -0.08841956       0.04977890      -0.08932932
Ar      10.17954682       9.71574503       7.87167306       0.02124867       0.02389079      -0.09012278
Ar      12.03254055      11.14914771      14.74776001       0.03130857       0.03363593       0.10753061
Ar      15.06106128       3.07811336      17.30940151      -0.06096704      -0.04131575       0.10787322
Ar      13.09946653      14.11882825       4.52521583       0.04410236       0.03902337      -0.03994393
Ar       7.97628165       4.87000490       1.89871248      -0.08840377      -0.06768070      -0.08372212
Ar       8.04955482      16.20074092      15.84778409       0.01545902      -0.03718362       0.01305226
Ar       5.33989893       7.25205151       2.75429821      -0.06532841      -0.03467106       0.03281895
Ar      10.85165609      16.64565551       3.07291834      -0.03235345       0.04946854      -0.01319599
Ar       3.20600804       7.97387689      16.23621507      -0.05729905       0.03432285       0.00802684
Ar      17.24433278      14.52396641       9.14959332      -0.01773619      -0.02953067       0.03882699
Ar      17.05248816       4.27555703       4.12065587       0.01284661      -0.00122141      -0.06132980
Ar       0.96397515       8.24067819       8.09510716       0.02702917       0.15094585       0.00740320
Ar       7.86307386      13.17323602       8.24665921      -0.00295523      -0.01471349       0.04760241
Ar      13.96144945      11.84681193      10.36050076       0.03987052       0.03679363      -0.03651059
Ar       9.67751031       7.15444106       4.35899557       0.02459151      -0.03901419       0.02295055
Ar      15.19367666       0.81497230       2.31607691      -0.06238315       0.03012998       0.08009222
Ar       1.29505207       0.94901589      14.60976801       0.07646229       0.05303367      -0.02995734
Ar       6.11404126      14.46941517       1.18197988       0.07017556      -0.04535656      -0.01698364
Ar      14.66037130       8.12307992      12.04948735       0.03841952       0.01539977       0.03808003
Ar       7.72061760      16.45442395      11.14084551       0.02776643       0.05996280       0.00740766
Ar      13.07545274      13.87307682      13.00165533       0.04497734      -0.07423640       0.06512005
Ar      13.45693835       7.79788923       7.65528049      -0.04900041      -0.03960147       0.08367906
Ar      16.74790550      12.52874050       2.90428606      -0.07244347      -0.04508946      -0.03676682
Ar      13.39508014       3.90768564       5.52919224      -0.01438059      -0.03085178      -0.12383302
