108
Lattice="17.35 0.0 0.0 0.0 17.35 0.0 0.0 0.0 17.35" Properties=species:S:1:pos:R:3:momenta:R:3 pbc="T T T"
Ar      17.34448923      12.52085828       3.77166311      -0.01478348      -0.05458384      -0.00428987
Ar       3.51453698      16.67568259      10.16908373       0.01144782       0.01654729       0.04593597
Ar       2.54683400      13.32183137       9.39934843       0.07152005      -0.06517296      -0.00398163
Ar      14.71866693       1.13326414       6.65713001      -0.10305626       0.04275966       0.02000283
Ar       3.21683107       1.60808054      13.23024091       0.11108242      -0.02742324      -0.11512708
Ar      11.17382237       9.40420823      13.93440247       0.00679545      -0.01880545       0.04910336
Ar      16.07427795       3.51737278       1.49276605      -0.02824869      -0.02586294      -0.06560197
Ar      14.51246144       3.35725548      10.55047203      -0.01272153       0.06984897      -0.08861247
Ar      11.28081081       4.52024432      11.86456507       0.00198524      -0.04329654       0.06793622
Ar      15.42620032       5.87670899       7.70846595       0.02750481       0.05068160      -0.04607482
Ar       2.65266121      12.10371741       5.62292034       0.13511080      -0.00863747       0.00548159
Ar      16.90589394      14.48294620       7.00501287      -0.10460411      -0.01378664      -0.05339427
Ar       4.16609838      10.15264136       8.60347520      -0.02459318      -0.01540916      -0.04203329
Ar       3.26198455       8.65353931       3.48946145      -0.00016112       0.00109724      -0.04601981
Ar       4.59164495       3.26076111       9.94958216       0.04066416      -0.01394910       0.02432242
Ar       6.24251132       7.77786109       2.22894545      -0.01322492       0.10912741      -0.01595548
Ar      13.63760000       1.43037484       2.81885704       0.04765534      -0.10656573       0.11987311
Ar      15.58158217      17.02015870       0.35768858      -0.07188319      -0.02133815      -0.02026512
Ar       4.93905512       4.57512551       3.42635512      -0.03051827       0.07300570       0.02363728
Ar      13.13375659      10.35522594       2.92612040      -0.01654779       0.01408417       0.02290131
Ar       9.75687166       1.72819376       4.00616561       0.00704320       0.02434854      -0.03946032
Ar       9.00582509      10.71765052       6.99551284      -0.07901401       0.00953034      -0.00561387
Ar       7.16401696       6.20496394      10.77869681       0.00896319       0.02302672      -0.09875237
Ar       8.21352007       6.85125201       7.52102235       0.04811858      -0.03962807      -0.00536159
Ar       7.85359878       3.66788308      14.46116000       0.00173228      -0.09364316       0.01489547
Ar       0.84624229       3.00507870      16.07992606       0.10084395      -0.10466416       0.00868248
Ar       8.32720644      17.31103687       1.51870888       0.01032872      -0.01472528      -0.01321150
Ar      12.53849112       7.07997568       1.20147268      -0.09505940       0.08696252       0.06023157
Ar      13.56796879      14.87582349       8.47109598       0.05062173      -0.06023612      -0.02935201
Ar       9.24845175      14.15337614      11.89067679      -0.12943761      -0.06216709      -0.07721417
Ar       4.06259520       1.85761405       6.84259236       0.03990907      -0.07558660       0.03431986
Ar      12.01429240      16.45431610       0.75836638      -0.05498542       0.00552468       0.02614600
Ar       5.73747053      10.81162451       4.86813950       0.00588562       0.08971070       0.02594148
Ar      13.91936271       7.51582605      12.55527008       0.01076269       0.01037715       0.02004562
Ar       1.79557113       7.63878004      15.28433062       0.08251709       0.11462786       0.03999577
Ar       8.46849082       8.02902959      15.71044030       0.06102914       0.02241155       0.03101746
Ar       3.63960594       6.76943808      10.43898744      -0.08406034      -0.02786189      -0.06088624
Ar      10.18438456       1.24085960      15.73826717      -0.05278407      -0.02079022      -0.06293641
Ar      11.34163616       0.35770947       8.58151290       0.07607617      -0.06233971      -0.05551684
Ar      16.84869780      14.87407463      10.93315711      -0.06142658       0.01593735       0.04676891
Ar       1.71449089      17.00215000      17.08361603      -0.02371154      -0.09254234       0.11982018
Ar       3.24461407      15.06124710      14.51043950      -0.00090841      -0.03696555      -0.01352192
Ar       5.57049384      13.94375488      11.11082214      -0.11952890       0.00403995      -0.04436453
Ar       1.25458003       5.36859574       4.33135742       0.04650821      -0.08380467      -0.06677373
Ar      17.15382903      11.27292173       9.94326319       0.00072194       0.05617659       0.00439917
Ar      15.03713493      15.20036260       3.43600260      -0.03957238       0.08388427       0.01916813
Ar       7.55048061      10.97468958      10.30424235      -0.00826543      -0.04798755       0.05197604
Ar       5.35744508       6.88339026      14.35149443       0.00105025       0.06447835       0.06826228
Ar       1.15973406      12.66364400      12.97843882      -0.04257353      -0.01451454       0.01336789
Ar       6.97784566      16.38400515       9.32595724      -0.03072016       0.01846249       0.02948944
Ar       4.08789485      10.14965224      12.24016256      -0.01697823       0.06487482       0.02891277
Ar      15.68718838       5.91260136      15.02991706      -0.01352390       0.01542846       0.02644877
Ar       4.92061907      10.11683115      16.71242565      -0.03315826       0.07320820       0.04663253
Ar      16.91250220       9.59060362      12.94644354      -0.06777675       0.06350431       0.02975230
Ar       6.02941223       0.98266740       3.68426137       0.01893879      -0.04990557       0.10394987
Ar       4.47029736       5.52750104       6.99317909       0.06472190      -0.00155062      -0.02585601
Ar       0.48718359      10.11599123       0.39255136      -0.03640921       0.10598271      -0.02037905
Ar      13.66475720      16.78999627      12.75534710       0.06011596      -0.00980066       0.04232373
Ar      16.74651599       2.01841000      12.76510373       0.03394429      -0.06405033      -0.02741628
Ar      12.16681669      12.66485761       5.50937697       0.03105199      -0.02748446       0.07302531
Ar      12.18280432      11.24057770      10.22886995       0.02432928      -0.02344276       0.03109171
Ar      14.65896771       8.74238118       9.25843409      -0.01310053       0.02180060       0.00008137
Ar      17.33167503       0.88196489       9.36241195      -0.01805036       0.03698098      -0.06859768
Ar      12.83432866       4.82851472       3.89299041      -0.01425752      -0.02570475      -0.03865873
Ar       0.91686258       3.93423642       7.83873903      -0.04357518       0.06666465      -0.01090805
Ar       9.88273632      14.14240964       8.39170743       0.03428448       0.07360852      -0.09248774
Ar       2.38118311       2.17891469       2.18379806      -0.02767077       0.06325049      -0.11121528
Ar       8.14627200      16.91183740       6.01238598      -0.07200056      -0.02172896       0.01501059
Ar       4.85927927      14.91003756       0.22851672      -0.11421646       0.06570311      -0.00648638
Ar      14.22400689       9.36661169      16.30176017      -0.04659154       0.01495697       0.08284568
Ar       7.21774817       3.85991404       0.45941599      -0.09054360       0.06957427      -0.05985792
Ar      11.86606899       4.07820929       7.43312174      -0.00027896      -0.06283818      -0.01285009
Ar      14.06498218      12.71473754      12.84696920       0.01037558       0.00405120       0.05523806
Ar      11.91518052      16.52449875       5.35315831       0.04157924      -0.06262187       0.07645011
Ar      10.91256119       3.76989130       0.83179143       0.00804934       0.01278322      -0.01795430
Ar      17.25971157       6.61028156      10.94513541      -0.00967624      -0.02291428      -0.04551062
Ar       7.11193048      12.04789127       1.61411546      -0.05781076       0.06602110       0.04053118
Ar      11.41884941      13.95749487      15.20880034      -0.01008060      -0.01422500       0.01270472
Ar       1.07226335      13.75858741      17.29365826      -0.04088389       0.01863236      -0.02647900
Ar       6.37138088      14.46059997       4.01068049       0.06329009       0.05783563       0.02699224
Ar      14.52536423      12.96165271       0.09075232      -0.08995081       0.03166834       0.09532500
Ar      10.17541620       7.84594309      10.65220205       0.05002450       0.01704603       0.06854391
Ar       8.56425364       2.85777386       8.73879777       0.07481330      -0.02252232       0.03221525
Ar      16.38424121       6.90473466       1.19870484       0.05529078      -0.05919472       0.02403403
Ar       9.48472643       9.68791954       3.22185574       0.00311602      -0.01225249       0.06822479
Ar       7.36040184      12.06120175      14.39914808      -0.01779277       0.01250814       0.07570416
Ar       1.83134956       4.71414758      13.11290027      -0.08341910      -0.05287413      -0.06965187
Ar       2.85950306      16.13959930       2.96101501       0.06958234      -0.01567744      -0.04517674
Ar       9.22848974       6.06092399       3.15473089       0.08623276      -0.07635070      -0.02028207
Ar       4.72472429       1.10333051      16.49306256       0.05241873       0.07783169       0.01479526
Ar       7.32228028       3.87734718       5.60427742       0.00780379      -0.06890348       0.03556918
Ar      10.74245273      13.84725704       2.48752728       0.03175682      -0.03737824       0.03410093
Ar       2.69483712       6.06252929       0.69843498       0.02260220      -0.12770463       0.01666074
Ar       2.84205732      16.01215331       6.40955953      -0.05663596      -0.04542584      -0.07763559
Ar      13.80749902       2.88663185      15.95561152       0.04499375      -0.00050216       0.00921467
Ar       1.15907284       8.23776682       6.27323082      -0.01061517      -0.08763559      -0.12924216
Ar       5.40999759      13.46851966       7.22757003       0.16612598       0.14179185       0.06122587
Ar      10.99185918      10.14035197       0.02347583       0.00969834       0.08726849      -0.10365512
Ar       3.40212965      12.13672003       2.23640336      -0.00424471      -0.08205999      -0.03067872
Ar       0.93309691       1.15027165       5.36994039       0.06686580      -0.04331412      -0.08535791
Ar      16.62405415      15.42225889      14.80488538       0.04975908      -0.01150914       0.01215177
Ar       7.44586627      15.73577508      14.31530956       0.10300379       0.04965311       0.02485957
Ar      11.44437379       5.64536939      15.15429178      -0.05180188       0.01365951      -0.04908966
Ar       6.64364064       1.26372004      12.21635470      -0.04010704       0.01670120       0.01414939
Ar      10.32388540       0.84940212      11.84454582      -0.05470754       0.09804061      -0.04533227
Ar      15.34804937      10.80509636       6.30134385       0.09801991      -0.07230395       0.01931173
Ar      15.08109911       7.65223254       4.64657108       0.01114762       0.01158633       0.00165109
Ar      11.78841759       8.12008565       6.14665977      -0.02156567      -0.00510351       0.00163044
