108
Lattice="17.35 0.0 0.0 0.0 17.35 0.0 0.0 0.0 17.35" Properties=species:S:1:pos:R:3:momenta:R:3 pbc="T T T"
Ar       0.68599334       9.34073244       6.03328542      -0.05435209       0.00958094      -0.10540986
Ar       5.00334893       4.39242572       8.95578946      -0.12835336      -0.08294940       0.16179385
Ar       6.36306629      16.65036271       7.04781947      -0.07602413       0.05245393      -0.07518445
Ar       2.01943873       2.11526329       9.46246933      -0.01472467      -0.05524244      -0.09741571
Ar       8.39037878       3.69009936      15.31963058       0.08127677      -0.04762744      -0.09293641
Ar       7.04110945       9.69013962      10.08980599       0.02483436       0.06191422      -0.03467990
Ar      13.15637882       3.74847391       1.04685260       0.02011443      -0.00470845       0.09418548
Ar      13.95052039       1.98049788       8.38620838      -0.04937874      -0.03206811       0.00836334
Ar       9.43466584       6.93363690       9.03685997       0.03178093       0.07793316       0.01231799
Ar      13.34389923       7.51595627       2.75849046       0.06643452       0.00348979       0.00095055
Ar       1.63487966      11.40733408       9.89923109       0.01039611       0.05476397       0.05098806
Ar       0.45374350      14.67291968      11.32621441      -0.01440547      -0.01123153       0.04924701
Ar       3.67250959       9.69743139       4.48224146      -0.02602736       0.00065837      -0.00812019
Ar       2.70137052       6.14145291       5.25443165      -0.04681073       0.01384653      -0.04013749
Ar       5.54574086       6.46737748      11.59112089       0.03746994      -0.07493805      -0.00720514
Ar       6.64329181       2.99934957       1.07111489      -0.00415005       0.10330113      -0.01188942
Ar      16.98074612       0.01514243       3.73739214      -0.02710794       0.04113765      -0.00625280
Ar      10.16449134       8.79966392       2.10607130       0.02678226      -0.02870187       0.02194268
Ar       8.22929975       3.85296316      10.84174242       0.00952343       0.01969258      -0.05954628
Ar      16.15189982      10.46978987       3.25031918      -0.03812861       0.01607034       0.00449968
Ar      10.27175803      17.20248493       6.27147933       0.03016482       0.12707154       0.06798726
Ar       5.65676627      12.99881564       7.93188300       0.01132034       0.06383602      -0.00971710
Ar       1.15627048      15.26261376      14.84509570      -0.07216335       0.04389361       0.01405756
Ar       5.97580140       7.78451101       2.44073788      -0.00916516      -0.03150969       0.00013803
Ar      10.06716250       5.40273141       0.73287377      -0.00047150      -0.04097632      -0.09043165
Ar       4.71122068       3.20247488      14.29755932      -0.03983396      -0.06466140       0.02127411
Ar       7.92178333      17.19962063      17.28096553       0.06755385       0.01742593      -0.02251158
Ar      10.47369091      14.32524217       0.21807609       0.08952325      -0.05338963      -0.02807849
Ar      15.40285751      11.28640732       8.59133541      -0.08628532      -0.05790220       0.05622914
Ar       7.88887886      13.96266605      10.71241406       0.06905068       0.07097107       0.05204635
Ar       4.38292629       7.66252407      15.93785221       0.07009228       0.03419457       0.01516430
Ar      14.90574362      16.07275161      14.20953373      -0.04647885       0.05250060       0.06044043
Ar       7.15802930       9.72036117       5.26408240      -0.00491931       0.00038771      -0.02479394
Ar      12.66968481       6.08609627       7.00405127      -0.06540396       0.04834795      -0.00379292
Ar      11.95780739       5.14473749      14.91177913      -0.02115435      -0.04203949      -0.05337893
Ar       8.05751851       7.45456551      16.16083856      -0.08386029      -0.00664087       0.13039357
Ar      16.73206760       6.71345261       3.46872992      -0.03815127       0.09685510      -0.07306489
Ar      12.13568799       1.70192967      12.90652761       0.03089000       0.12893371       0.01252843
Ar       9.05324587       0.21502260       9.62746809       0.07675869       0.11889515      -0.05216951
Ar       2.44635420       0.72595922      12.78208731       0.00834290       0.03730896      -0.04048507
Ar      14.88524876       4.13951147       4.78581302       0.05325934      -0.10368088      -0.06023218
Ar       8.99061688      16.12803463       3.19388073      -0.02488836      -0.04092992       0.08264045
Ar       3.95377869      13.52551466      11.83267383       0.06866987       0.05068726      -0.08265948
Ar       6.67657870      10.33671798       0.03437715      -0.08037747      -0.04244169      -0.03101167
Ar      14.05764991       9.30032024       5.94709353       0.02577271       0.16640370       0.00710149
Ar      16.17156981       0.41755104       0.23122368      -0.00064487      -0.19718209      -0.03112770
Ar       3.35374263       9.98994825      12.40486975       0.04720023       0.06603350      -0.03309532
Ar       2.30453093       5.57687380       1.15168083      -0.02208927       0.07363111       0.07964014
Ar       5.49210626      16.84353127      14.75269691       0.03086177      -0.04304492       0.06152029
Ar       5.52000545       0.08125803      10.44700741       0.05876722      -0.03017170      -0.08549064
Ar      15.71701924       4.36638974      10.50167059       0.03578592       0.09588406       0.05440479
Ar       1.55899719       4.01996333      12.41152362       0.02159614      -0.07691747       0.02342981
Ar       7.53636112       5.78334638       5.43740105       0.04476584      -0.05805891      -0.01507048
Ar      13.72947257       7.99980067      10.27261248      -0.13977261       0.01780628       0.09626676
Ar       1.94722820      12.64754466       2.90162391      -0.09704737      -0.01946243       0.04820384
Ar       4.73536895       8.45009896       7.94138902       0.06577970       0.02908681      -0.02525783
Ar       1.95661576       9.05579879       1.30559535      -0.00102584      -0.01075354       0.01652429
Ar       0.97980607       2.72486067      15.72307990      -0.05892359      -0.00079179      -0.02059385
Ar      15.24309445       6.11731840      17.10118188       0.04406700      -0.03326801      -0.06255746
Ar      10.60260995       9.47308153       5.95283162      -0.00873055       0.02196832       0.03216245
Ar      14.02735872      12.86457611      11.59056012       0.01447380       0.07965236       0.04688093
Ar       2.69858666      16.20066638       4.86559732       0.01672344       0.03899423       0.07119452
Ar      17.09908903       3.34077314       2.14607298       0.05360678      -0.07485286       0.06494137
Ar      13.77614801       0.84467742       4.98493006       0.00874799      -0.00536213      -0.14000174
Ar       1.94933552       6.16162348       9.66367412       0.09057882      -0.02287794      -0.04296059
Ar       9.47493817      13.48631219       6.23902838       0.06175896      -0.03172585      -0.04574807
Ar       5.30698906      17.15329343       2.61835883      -0.06399189       0.00209943       0.05593894
Ar       7.83243317       2.17421765       4.48817341       0.10217362      -0.03831806      -0.03475632
Ar       5.10186973      13.88276033       0.63108293      -0.00070752       0.12708400      -0.00915714
Ar      16.86455080      11.96799324      13.89041033      -0.13420788      -0.07819783       0.23538555
Ar       4.03947739       2.09037020       6.16304621       0.04641853       0.03306332      -0.02102661
Ar       9.75220742       3.52858276       7.65954817      -0.00061402      -0.08041418      -0.10655327
Ar      13.25237165       9.73461219      13.14419006      -0.07425370      -0.01147416      -0.00274813
Ar      13.04391479      12.70495492       6.24883219      -0.03615785      -0.10452133       0.00171573
Ar      10.62980550       1.74578317       1.88318952       0.07800366      -0.07814113      -0.04815930
Ar      12.00242777      15.10393726       9.25129657       0.00244476       0.01480193       0.03199343
Ar       5.20044525      13.14953144       4.32685536       0.08399255      -0.02181015      -0.01002566
Ar       2.76341110      11.50294257      16.44519857      -0.03170232      -0.10438555       0.01691155
Ar       1.98720446      15.56032323       0.83944503      -0.04333935       0.05755497      -0.00922564
Ar      13.41578146      15.34998755       2.35190146       0.05210024      -0.01506078       0.07556187
Ar      16.01696938      13.54224794       0.07163299      -0.01588664      -0.00579175      -0.01759545
Ar       0.57006910       2.72743091       6.01665275      -0.01584142      -0.02894136      -0.00064984
Ar      11.18137781      10.92581305       9.64725810       0.04228376       0.07926579       0.03070818
Ar      17.24910389       8.90037244      11.30540671      -0.00583585      -0.08530303      -0.03923549
Ar      12.62986904      11.78448088       2.89065166      -0.08837058       0.07732303      -0.01529249
Ar       7.25612076      13.80113490      14.42893389       0.02264331      -0.05685086      -0.03805294
Ar      15.38349232       6.67711756      13.56746775       0.00752514       0.00163810       0.04744868
Ar       1.70785528      12.99781394       6.41055949       0.01936007       0.01201601       0.09710587
Ar       6.81376277       9.67088449      13.74491701      -0.00628636      -0.09387747      -0.02228118
Ar       8.75240064       0.24086910      13.87598065       0.03925764      -0.04921944      -0.01152660
Ar      11.90545137       4.04048407      10.18451549       0.04755291      -0.11298077       0.10696388
Ar      13.38173249      13.09980168      15.65630459      -0.03699276       0.00867788      -0.04014286
Ar       2.61465928      16.13496545       8.63851043      -0.05053884       0.05855727      -0.03211631
Ar      16.17854175      16.35540572       7.54077732       0.01480128      -0.00086398       0.00800823
Ar      14.95896408       2.50082205      15.05171024      -0.05114556       0.05365505       0.01595084
Ar      10.98434425       4.68533684       4.02491931       0.01359282      -0.03224580       0.00351584
Ar      16.54647647       6.20701357       7.46289932       0.10784566       0.02210344       0.05133974
Ar       1.06155710       7.19526552      15.16638164      -0.07179944      -0.02358588       0.03818417
Ar       8.88183097      12.31069048       2.90071103       0.05493690      -0.02145593      -0.03281672
Ar       3.09534931       1.67948529       0.73631831      -0.10812582      -0.00690082       0.01109030
Ar      15.63845009       0.55325706      11.44059807       0.01789218       0.07657626       0.01416140
Ar      12.40136800       0.07626735      16.52761941      -0.02093585      -0.04515263      -0.05340136
Ar       9.58711758       7.08955932      12.57606596       0.00923085       0.03695230      -0.08749672
Ar      11.40984880      15.07567273      12.93426689       0.04372311       0.00167047      -0.04400030
Ar      10.04121315      11.20286976      12.94937330      -0.01472747       0.03821625      -0.04983788
Ar      15.81009292      13.72465322       4.72950153      -0.06050840      -0.00913551      -0.01161631
Ar      15.80674210       9.96004830      16.91846000      -0.00049046      -0.07353766      -0.03963159
Ar      11.33425089       9.99541784      16.57961034       0.00280627      -0.03259258       0.02891167
