108
Lattice="17.35 0.0 0.0 0.0 17.35 0.0 0.0 0.0 17.35" Properties=species:S:1:pos:R:3:momenta:R:3 pbc="T T T"
Ar       1.99867172      11.05011492       5.86771044      -0.02018103      -0.01306344      -0.02289133
Ar       2.67076754      17.31201726       8.10501212       0.02173031       0.01555381       0.03765668
Ar       2.51364677      11.04724194       9.53034212      -0.04967656       0.04929338      -0.04431549
Ar      10.45308688       2.65861356       4.56069306       0.00124958       0.04444091       0.03643861
Ar       4.47539527      15.43285595      13.96270628      -0.01553935       0.04191359      -0.09665737
Ar      14.48537854      12.04484587      14.88774487       0.05848553       0.04345496      -0.05084062
Ar       0.65216737      15.50031949       2.53423109      -0.00889278      -0.04185179       0.07217452
Ar      13.61333672       5.79888702       9.54685507      -0.04262495      -0.10339119       0.03212339
Ar      13.89130656       4.24199781      12.74312398       0.03281966       0.08434575      -0.08356934
Ar      15.09852259       2.78265873       3.06007449       0.00251540      -0.04447387       0.06713166
Ar       3.04393610       6.73854736       9.93021062       0.03398514       0.04633772       0.00843809
Ar      15.91714973      11.19458678       7.75591236       0.00420514      -0.02348300      -0.05256928
Ar       1.78765336       3.73224612       8.34598469       0.05123612       0.05559098       0.06679212
Ar       1.90145564       7.60757485       5.85407496       0.07761025       0.07389237      -0.02709121
Ar       5.20015957       0.96412656      10.33545105      -0.01275402       0.05411499      -0.02592502
Ar       4.54425604      11.51429627      15.71811359       0.07131022      -0.06251813      -0.02331575
Ar      13.63367186       2.72431765      16.09107032       0.09627344      -0.08408607      -0.05268262
Ar       1.90173420       2.24963195       1.92821891       0.02307850       0.06067652      -0.05480555
Ar       3.30444249       3.96911647       5.11262178       0.03321049      -0.04056042       0.04609995
Ar      12.85131025      10.75799163       3.95865183       0.02358637      -0.07686305       0.00561208
Ar       9.15788715       5.61383639       6.77080761       0.03761937      -0.03749928      -0.06407660
Ar       6.04132162       8.78881368       9.80020004       0.02058890       0.07619562      -0.02863752
Ar       6.74355144       4.61838368       9.39839020      -0.02969332      -0.02525864       0.12238881
Ar      10.09386064      11.96556179      11.18028183       0.01868304       0.04967177       0.02617808
Ar       7.86630528       7.35833816       0.73395445      -0.03002240      -0.07619526      -0.03597654
Ar       2.70728677       2.94252621      15.11584593       0.05664094      -0.00734342       0.08181923
Ar      11.26450321      14.64093175       0.13935556       0.07334885      -0.00790550      -0.14305633
Ar       8.24354893      11.38329623       1.09732988      -0.07436814      -0.12928492      -0.03774191
Ar      15.00242626      14.62378648       9.56000375       0.00049951      -0.07887919      -0.03052256
Ar      11.50147677      15.36432005      10.53240513       0.00584607      -0.00432612       0.01868750
Ar       4.75542770      16.84547950       3.61469138      -0.00568886      -0.08032422       0.04186225
Ar      10.84557015       0.79471526      16.54213478       0.16299145      -0.03423025       0.01922564
Ar       5.46833699      10.62375551       6.83991966      -0.00886131       0.02015140       0.12350222
Ar       9.74370803       7.63743931      11.88583963      -0.04698263      -0.01646513      -0.04561296
Ar       2.66256745       9.08234396      13.10199550      -0.03983537      -0.00778372      -0.00058466
Ar       7.93114854      14.28040611      14.82662287      -0.06807989       0.00050660       0.01689245
Ar       3.44305724       3.69218463      11.59610395       0.03686713      -0.00582583       0.05446880
Ar      10.45377080       4.81074403      14.45671002       0.05256265      -0.00714466      -0.01261754
Ar      12.26434889       1.82755680       9.30024068      -0.00945345      -0.09855991       0.02289108
Ar       1.11916439      17.30895071      11.79219189      -0.00334580       0.05866006       0.09148377
Ar       3.91190573      17.20217895      17.19244676       0.02357732      -0.00280577      -0.11297591
Ar       4.45021071      14.28746626       9.24801840       0.04468814       0.03218733       0.04350368
Ar       5.86882168      11.88885555      11.22611767      -0.08301964       0.01197038       0.00830122
Ar       0.65888045       1.76146233       5.28941339      -0.08099347      -0.01352012      -0.18546993
Ar      15.93587022      10.46430707      11.91843769       0.06213337       0.07796962       0.07977857
Ar      15.05321689      13.71401865       0.67979837       0.06634760      -0.04521300       0.06296041
Ar       7.06817703       9.62134816      14.32656589      -0.11755860      -0.04358719      -0.10150857
Ar       5.55498172       6.59793310      12.51342262      -0.07331049      -0.10542844      -0.05757264
Ar       2.20704355      12.91118646      12.68002496      -0.01002691      -0.05346577      -0.03218392
Ar       3.31219730      14.46467536       5.86466256      -0.02629218       0.07874382      -0.07629433
Ar       5.50258260       6.92089814       6.32471196      -0.03872298       0.07533445       0.00606162
Ar      15.63456234       6.46619129      15.08726200      -0.04715756      -0.04915470      -0.00739740
Ar       2.05897457      10.97851016       0.84026281      -0.05370081       0.01165811       0.05615154
Ar       0.31396857      10.37718851      15.21269081       0.07933116      -0.04676845      -0.01035281
Ar       6.72279590       4.74296153      15.71910852       0.02352496      -0.07107977       0.07811066
Ar       6.36143358      16.22345285       7.20353552       0.07780114       0.04807434      -0.02376031
Ar       3.62618887       6.62762532       2.77949386      -0.01023712       0.02169601      -0.09820302
Ar      16.04723174       1.85980185       8.34995662      -0.00505428      -0.07727368       0.02893164
Ar      17.02570283       3.29280847      13.03681933      -0.11408254      -0.04223790       0.03055150
Ar       6.43540407      12.96708370       4.15523449      -0.00602266      -0.01483572      -0.01038252
Ar      14.64664264       0.43949744      12.22772975      -0.08698651       0.03102570      -0.01676820
Ar      12.38330429      12.71759662       7.06537796      -0.01801672      -0.03474521      -0.01689439
Ar      13.64335282       0.79838193       5.74988540      -0.06634206      -0.02324941       0.03460035
Ar      13.90633043       6.48392035       3.18133724       0.02552400       0.05909484      -0.04649908
Ar      16.39499495       5.46245552       6.77427898       0.08683848       0.07191394      -0.04816005
Ar      10.41969886      16.56875000       6.83409826      -0.02489332       0.00098533      -0.03191567
Ar       5.38288384       3.25575343       1.63032332       0.05450134      -0.00488260       0.05780439
Ar       8.05657987       1.06449315       1.61446674       0.00560688       0.00875580      -0.01294385
Ar       4.71528536       9.86633958       2.86796177       0.10202993       0.02138878      -0.03515518
Ar      11.74587095      11.15758524       0.03193478       0.04864562       0.05604790      -0.11803269
Ar       7.46943801       3.16440339      12.43475626      -0.03059443       0.03265640      -0.00693365
Ar       6.78836636       2.22918223       5.33717209      -0.02031379       0.04218684      -0.01974833
Ar      16.16467471      14.33678896      12.65323222       0.03937168       0.01395971       0.12455096
Ar       9.91530050      13.56288127       4.99332787       0.02132237      -0.02779898      -0.05811514
Ar      10.55227568       8.23902321      15.88811295       0.02224198       0.07414415      -0.01791395
Ar       0.59793877       6.51361738      12.46452202       0.01757573       0.04758362       0.11460993
Ar       3.89895138      13.76616842       1.67583835      -0.02942324      -0.02505909      -0.02493001
Ar       9.83295631       0.46899033      12.79477110       0.02904879       0.07408156      -0.03377000
Ar       0.81744589      14.21073670      16.19591401      -0.01340613       0.00404997       0.02281251
Ar      16.79752367      14.94388742       6.36663557       0.01959774      -0.05210112      -0.01183859
Ar      14.82635512       9.96461947       0.84333596      -0.02226083       0.04497041       0.03667776
Ar      10.35006797       4.58012344      10.26664591       0.01020666       0.00320294       0.08164285
Ar       8.81025692       1.32684058       9.17300540      -0.11902910      -0.04005402       0.01763953
Ar      16.76640940       8.68156493       4.13746906      -0.08669724      -0.08845237      -0.01402974
Ar       9.33867356       9.86138479       7.00750109       0.05081264      -0.00737642       0.04206272
Ar      11.13495807      12.87565274      14.50051356       0.02614481      -0.11005296      -0.06482355
Ar      16.79032727       4.17677672       0.08640683      -0.02215987       0.06786806       0.00429073
Ar      13.95803923      14.70212580       4.04578167       0.01726817      -0.05796965       0.00058670
Ar      10.03558080       4.43301620       1.04822258      -0.11616852       0.00909737      -0.00584433
Ar       7.10079833       0.82734946      15.32857314      -0.05789171      -0.01524986       0.04304774
Ar       7.49775199       5.49958859       3.64590664      -0.03945971      -0.03965628       0.09128484
Ar      11.43253296      17.21000484       3.23236349      -0.05211985       0.07927166      -0.04210247
Ar       4.16051002       7.88410404      16.40522441       0.01952324       0.04938166      -0.01833346
Ar       1.07813850      14.35690317       9.35692710      -0.01073756       0.07983217       0.01256805
Ar       0.44101915       5.18712588       3.53065272       0.08659486       0.02592907       0.06973792
Ar      16.61330576       7.84523567       9.22006306      -0.07134946       0.08780400      -0.02500260
Ar       8.11844750      13.33136310       8.14319110       0.01285760      -0.01207329       0.09916571
Ar      12.66163929      10.13942283       9.96911908      -0.05472251       0.01485274       0.14328975
Ar      10.10721109       8.39753230       3.62593494      -0.01474917      -0.00090857       0.13665520
Ar      15.00403374      17.02580595       1.40798998      -0.02420880      -0.09842687       0.06787851
Ar       0.01731409       0.16962751      15.98422667       0.02823910       0.04671178      -0.03602824
Ar       7.30620875      14.75305521       0.93920870       0.06827172       0.07813294      -0.06935724
Ar      13.20775560       8.23181615      13.34596990      -0.01801878       0.10753507      -0.00472806
Ar       7.32263941      15.49006453      11.09600823       0.03894218       0.01308445      -0.04514200
Ar      14.00380982      16.09666590      15.34653152      -0.04733757      -0.05416668      -0.18095612
Ar      13.53351982       8.38531410       6.71533123      -0.06472608       0.04004009       0.04034906
Ar      16.68155486      12.17870859       3.77870537       0.05194967      -0.06979932       0.00144564
Ar      13.29564499       4.32898802       6.30778488      -0.01367085       0.01668683       0.02663954
