108
Lattice="17.35 0.0 0.0 0.0 17.35 0.0 0.0 0.0 17.35" Properties=species:S:1:pos:R:3:momenta:R:3 pbc="T T T"
Ar       6.18592458       3.38158757       5.46424809      -0.00570840       0.03630910       0.03695780
Ar       7.41063661       6.63837597       5.07114679      -0.03626681      -0.01845284      -0.06882458
Ar      11.07222274       6.39909327       3.79499477       0.00358942       0.06183710       0.03134464
Ar      15.09040616       8.41604603       8.72105330       0.09321259      -0.01049160       0.01665456
Ar       3.36264226       1.62795381       7.02776377       0.06495261      -0.01879035      -0.01289693
Ar       2.98703538       2.62616472       3.70174016      -0.06223718       0.04944280      -0.01534960
Ar      16.38669139       3.19990489       2.65788996       0.03670663      -0.02675544      -0.06454191
Ar      14.76917427       4.77439602       9.45380973      -0.01849680       0.00656360       0.01542293
Ar       9.68713422       4.47572371       6.61345508       0.03944460       0.07434835      -0.01174367
Ar      15.69740810       1.66255530      16.99847784      -0.00259947       0.05546363       0.02828371
Ar      11.82352502       7.86010933       7.15134323       0.11025553       0.01471878      -0.02669032
Ar       0.59818709       4.71512134       5.85888769       0.03362143      -0.02297317      -0.02525587
Ar       1.32160027       4.00748197       0.12346933       0.02271395       0.00036225      -0.13793559
Ar       7.48148977       8.17127534       0.99075507      -0.02839109       0.00749417      -0.10070605
Ar       8.83496699       3.85216480       3.04812974       0.00438341       0.04459530      -0.05301648
Ar       0.03845156       0.73355521       5.13286559       0.00204876      -0.01488170       0.00865992
Ar       6.68857286      17.03353347       5.46761461      -0.01385622       0.01895373      -0.02930733
Ar      12.89833614       3.12395221       3.31708057       0.05141879       0.05092395      -0.09227600
Ar       4.00430317       5.10541377       7.81989014      -0.01895558      -0.00382640      -0.06469450
Ar       3.18708188       8.36241497       1.39093540      -0.09813265      -0.03642899       0.03771006
Ar      14.51747497       6.08521165       5.23346364       0.00289515      -0.05727715       0.04145617
Ar      15.19954335       0.27510467       9.34497637      -0.05768129       0.04911258       0.02467781
Ar       4.95152811       4.41356224      16.89390315       0.05593853      -0.09474351      -0.03843889
Ar       3.04652112       6.13239351       4.20374597      -0.10278529       0.01991829      -0.06623842
Ar      12.55406140      16.82201684       4.04800991      -0.04152030       0.08804629       0.00519601
Ar       8.61900552       2.62901935      16.25383232       0.11026209       0.00684105       0.11312920
Ar       5.40298883       3.74347576      13.45446335      -0.00774098      -0.02716645      -0.00985034
Ar       8.00105556       1.22268910      12.80765681      -0.04366734       0.04803493      -0.01726186
Ar      14.98665453      17.32024717      12.89600336      -0.05012946      -0.02240967       0.08198889
Ar       0.41110056       2.63208894       8.78707273       0.12165108       0.08930206       0.05459468
Ar      10.33773456       5.41187320       0.04105473      -0.00800420       0.11788568      -0.01838767
Ar      11.24047690       2.32249025       9.21194140      -0.05493625      -0.03983907      -0.01894440
Ar       8.39628375       8.29299391       8.02071630       0.09774791      -0.04790731      -0.02095922
Ar       8.94837824       6.23798799      12.30289022      -0.01920241       0.03264426       0.05112048
Ar       2.05317592      16.60738713      16.62301271      -0.05715037       0.02589586       0.03587655
Ar       0.76368479       6.37465976       9.27548385       0.05955314      -0.07498144       0.03990569
Ar       1.52606284       5.38245696      14.06343367      -0.00287682      -0.04608513       0.00204333
Ar       2.45300334       1.58759094      14.11551946       0.00388613      -0.11586732       0.03493921
Ar       7.40215090       4.72512846       9.23272292       0.10015681       0.02644952       0.02124182
Ar       4.09331084       0.65261019      10.62081012      -0.08955576       0.06232950      -0.02054325
Ar      17.34973186       8.14428001       5.93420069       0.03999846      -0.10548712       0.07208281
Ar      11.09818451       5.84488802       9.66764028       0.11541420      -0.06547582      -0.01139803
Ar      16.38601821       3.00963562      12.55669647       0.02592355      -0.05571278       0.04719460
Ar       9.66372188       7.91738282      15.16814718       0.07147918       0.00872122       0.02870417
Ar       5.98841178       7.61113040      14.24548694      -0.08418588       0.04287877      -0.01250101
Ar      15.79639551       6.65899406      12.19552349       0.04200389      -0.11039082      -0.03278459
Ar       2.93232689       9.38739842      15.39061042      -0.08149166       0.00245230      -0.02403941
Ar       3.16398966       4.57306808      10.99854556      -0.04662423      -0.01821145       0.01737116
Ar      16.62976220       7.90894361      15.82605701       0.12009907       0.02032902       0.05670320
Ar       0.72107969      17.25866509      11.73798838      -0.05573914      -0.08888803      -0.05533818
Ar      15.05659549       4.75482001      15.45123153      -0.00921856       0.02502846       0.05946417
Ar      12.57762294       2.75507474      13.03990215      -0.03196969      -0.03415246      -0.00693117
Ar      14.56201160       2.68642908       6.69895319       0.09634094       0.05141419       0.08009390
Ar       3.24198425      12.01694186      10.72909643      -0.01725780       0.02842736      -0.11074441
Ar       1.84392411      11.07121395       4.49290893      -0.01935042      -0.03115545      -0.04261738
Ar      15.38900580      11.20865629       6.49368770       0.08995155      -0.02703136       0.06305562
Ar       5.09963936      11.37380990       0.47043799      -0.02108964       0.02898559       0.04246609
Ar       4.92194755      13.38754355       4.66758733      -0.02782919      -0.00061932      -0.05313760
Ar      13.21872967       9.48804406       3.22805134       0.03287891      -0.07448422      -0.00112044
Ar       8.40922601      10.76628697       4.88634119      -0.00103345       0.10384837       0.00163701
Ar      16.04128616      15.02705033      15.83466481      -0.01190484       0.02021498      -0.02445619
Ar       7.94771082      14.71020963       2.97246536      -0.02543776      -0.05747466       0.10333298
Ar       9.26815760       0.41722607       1.51854781      -0.00971879       0.02466096      -0.02239669
Ar      16.99165287       7.17304739       2.00143349      -0.00540452      -0.07954980      -0.05361252
Ar       4.93485486       9.71594291       4.66988690       0.00776901      -0.09787574      -0.04188845
Ar      14.12050811      14.36917485       6.82734351      -0.01742799       0.02182193      -0.00486938
Ar       5.18891488      15.17098296       0.86893797      -0.00651050      -0.00744471      -0.00213418
Ar      11.45199471      11.61678637       7.39047046      -0.06906062      -0.03370093       0.04595771
Ar      17.30402076      14.54852313       4.99187734       0.02649995       0.04551226      -0.06597681
Ar      10.43462637      11.01362454       1.25999436       0.00048402       0.07031151      -0.00238715
Ar       9.87074739       1.26792045       5.40058035      -0.04174130       0.01778690       0.01586594
Ar       8.38849751       0.18485125       9.14825513      -0.03851240       0.02884872      -0.00109590
Ar      12.25296818      12.86047480       4.05282732      -0.15420296      -0.09617175       0.06722185
Ar      16.65504639      13.88072474       9.48163982      -0.07138224      -0.09890776      -0.03974810
Ar       2.32968339      13.36420525       6.95592207      -0.04637024       0.01467473       0.02000666
Ar       6.63775499      12.05320983       8.22518230      -0.08525335      -0.01605448       0.02175238
Ar      10.93823337      14.51046412       1.05879671      -0.00932046       0.07577728      -0.07873700
Ar      12.27312960       1.59996929      16.23279678       0.04109023       0.00221029      -0.01185641
Ar      13.31182077       5.95238345       1.22191725       0.00725092      -0.11403347       0.02991239
Ar       9.70210477      14.53110148       7.08520239      -0.00659818       0.04690653       0.02587072
Ar       3.49604474      16.56886167       4.31383136      -0.09661910       0.03182975       0.10255993
Ar       1.10212755      16.45356037       8.12525705      -0.00427599       0.06559158      -0.02564083
Ar       5.61755600       0.94169318      15.78071152       0.01052613       0.00392862      -0.06864502
Ar       1.96507803      13.88383870       2.05593216      -0.02754470       0.09483472       0.00263855
Ar       2.52927099       8.59220349      12.04828846      -0.00576169      -0.07012126       0.04760838
Ar       3.80446348       8.89065001       7.95076939       0.04780186      -0.04418123       0.00911798
Ar      11.57671321       9.07554683      10.74668955       0.01807955       0.00238448      -0.00181846
Ar       0.56583332      10.33617557       8.89587709       0.03378666       0.04487794       0.01198809
Ar      15.32000826      10.30129325      11.72802715       0.14573795       0.02334927       0.03202277
Ar       3.63913994      15.75588079      13.59376802      -0.02719975      -0.00818039       0.07942914
Ar      12.83231490       7.65952693      13.58377572       0.00570394       0.06619681      -0.06373117
Ar      13.16546123       9.02721560      16.98308589       0.00886431       0.10470156       0.07565690
Ar      15.03477760      11.85914591      15.29688342       0.04482583      -0.00499020       0.03712178
Ar       2.84046242      13.32130533      15.99045490       0.00483327       0.01452198       0.07120580
Ar       0.49064632      13.92827892      12.67726035      -0.07891553       0.01246233      -0.00551916
Ar      13.49776451      13.56261134      11.74730141      -0.14476572      -0.10531300      -0.01273800
Ar       8.19308764       9.70740250      12.34328537      -0.02265823      -0.01322428      -0.07047366
Ar       8.32046094      12.35305305      16.28246021       0.01852902      -0.03309414      -0.05982080
Ar      12.51327469      15.09814069      15.08751825       0.08613860       0.05036913       0.00674326
Ar       5.60703648       1.01053870       2.17283843       0.04596064      -0.01389429       0.07130746
Ar      10.39649057      15.73748059      12.05376633      -0.00590225       0.08359972      -0.01284944
Ar       8.73866641      16.35451210      15.26755489       0.03707217       0.01961885      -0.03292261
Ar       5.58745173       7.37025108      10.66134887      -0.02503031      -0.01819363      -0.05094091
Ar       6.74282830      14.60639553      12.23778503      -0.02658841      -0.03128927      -0.03967200
Ar       4.87461565      15.23826839       8.62047059      -0.01226995      -0.02879766      -0.01496772
Ar       9.45778041      12.29445323      10.07023325      -0.03888409      -0.02845398       0.11560281
Ar      11.11307848      11.74470554      13.88620897       0.09378725       0.03984046      -0.07412461
Ar      17.17534439      10.88466481       1.21659965      -0.00232343      -0.03495839       0.00459860
