108
Lattice="17.35 0.0 0.0 0.0 17.35 0.0 0.0 0.0 17.35" Properties=species:S:1:pos:R:3:momenta:R:3 pbc="T T T"
Ar      16.95048362      12.01656691       1.50233612      -0.01427308       0.05022677       0.00131602
Ar       0.30782248       0.50008570      11.57153739      -0.05994645      -0.03532679       0.02149982
Ar       1.96661026      15.29430280      10.20432159      -0.04379740       0.00355280       0.03722940
Ar      12.71658807       0.18544400       6.92011415      -0.00629589       0.10545356       0.01377235
Ar       3.21190772       1.75067167      12.90080600      -0.01972142       0.02186722       0.08628251
Ar      12.40414269       8.64791597      13.23481614      -0.01051588      -0.10324545       0.05524853
Ar      13.70520969       4.69106038       2.32689766      -0.11518923      -0.02130277       0.02956004
Ar      13.78536769       1.11486347      10.30838945      -0.02558193       0.02210153       0.02272710
Ar       9.31456309       7.26702388      11.57305710       0.04879398       0.04415847       0.09004289
Ar      16.73132073       4.41281101       5.17726091       0.05738935       0.00053670       0.12560182
Ar       1.24483389      12.33915969       8.67235879      -0.00203652       0.04089528      -0.09434176
Ar      16.00108868      15.97540745       7.83154817       0.15834670       0.08184979      -0.13430529
Ar       4.69459386       9.89546276       7.00332338       0.01432536      -0.08162262       0.03960512
Ar       0.69527842      10.15277744       4.80994409       0.00592036       0.03932816      -0.02955135
Ar       4.83768163       6.64968675       9.54342524      -0.08981383      -0.00061087      -0.05627137
Ar       8.83669276       6.91705508       0.89563450      -0.06117932       0.13150888      -0.01193608
Ar      13.83161162       0.86912326       3.35430060       0.04193509      -0.06825840      -0.03687104
Ar      15.76782327      15.75701676       1.24478450       0.00774183      -0.00937580      -0.01284650
Ar       6.29117059       5.10842136       3.33598188      -0.05263889      -0.05551902       0.00482012
Ar      11.39340509      13.36372330       2.51274294       0.02584106       0.05622241      -0.05725530
Ar      10.01475439       1.84757418       5.48202449      -0.00784476      -0.05985153      -0.00232222
Ar       7.62217952      10.43437221       9.43785319       0.03132518      -0.08099710      -0.04830728
Ar       4.87037789       9.32327019      11.71532145      -0.05254749      -0.12370893      -0.06266557
Ar       7.74338942       7.61326956       7.39163309       0.03855503       0.00447383       0.01751751
Ar       9.78171824       2.80571487      15.74781360       0.02932166       0.00271130       0.11604100
Ar       6.14581886       4.69191220      16.48695791      -0.02654965       0.13837377       0.04889164
Ar       9.67374063      16.97770271       0.91091527       0.10509461       0.08877434       0.01989977
Ar      12.47219345       7.86632546       0.92620905       0.01611158      -0.07040874       0.02401090
Ar      11.97603092      14.30714960       8.23917518       0.01245851       0.08953495       0.01870650
Ar      11.01390291      11.74022406      10.47901080       0.00748020       0.00563478      -0.03784489
Ar       3.60134802       3.40331401       8.11257936       0.02733653       0.01554265       0.02802904
Ar      12.49857263      14.94955175      16.58870084      -0.04517343       0.03541163       0.03716722
Ar       6.60942362       9.12860136       4.42715570      -0.09629230      -0.04742588       0.00612532
Ar      13.52151947       5.12507435      11.57088174      -0.00458651      -0.00704588      -0.03516462
Ar       3.01370080       7.53711278      15.11861187      -0.00576665       0.14652595       0.00180161
Ar       9.62686566       6.17801904      14.64215034      -0.00376264      -0.00014769      -0.04457024
Ar       1.65062054       7.87240287      11.31768172       0.06289821       0.07065355      -0.00889775
Ar      11.23457447       2.65584721      12.15490845      -0.02145169      -0.04666776      -0.01701523
Ar       9.33908965       0.34046441       9.21393897       0.08738201      -0.02706833      -0.00075455
Ar      16.32436722      14.39133636      11.53204919      -0.01938393       0.01097794      -0.05505324
Ar       3.40935591       1.98416216      17.24133830      -0.00241241      -0.02054991       0.08275713
Ar       4.25055875      15.68626384      13.61362413       0.00614253       0.03292384       0.00220145
Ar       7.31951779      14.90396848      10.91126146      -0.02030523       0.06564618      -0.00119270
Ar       1.39770250       6.10649070       0.60009245      -0.02199830      -0.00921189      -0.00110187
Ar       0.28834492      10.99090061      11.96660158       0.04707061       0.02298860      -0.06428395
Ar      14.44361129      14.84755502       4.64753846      -0.02088115       0.01525300      -0.06739665
Ar       8.51488831      10.60276147      13.09402425       0.06177098      -0.12225869      -0.02413561
Ar       5.87042448       5.29322959      12.83293568       0.01567153       0.04939756      -0.04150407
Ar       2.44248115      12.87818451      14.50654865      -0.02028705      -0.01188427       0.04770168
Ar       5.21168491       0.43014451       9.71539048      -0.07580319      -0.09496254       0.07366738
Ar       4.17981064      12.90761178      11.30350135      -0.01082303      -0.05664572       0.00953989
Ar       1.50272333       4.54224553      15.04445836       0.03557829       0.04171613       0.07983666
Ar       6.85041116       8.29569774      15.33803215       0.00748250       0.01767251      -0.08822967
Ar      15.51226451       8.45504869      10.95443136      -0.03925400       0.03555524      -0.02792774
Ar       3.56322010      15.78387775       3.26591842       0.00509428       0.01858740      -0.04444056
Ar       1.95958032       6.72650744       4.82071594       0.03979258       0.05345538      -0.05157695
Ar       3.36787887      10.51110877      16.88777349      -0.00610082       0.01419432      -0.03127518
Ar      14.26081676      16.55579150      13.66611594      -0.02055995       0.04000087       0.07066024
Ar      16.28837577       2.94150435       0.04610032      -0.04650474      -0.04272922       0.00788317
Ar      11.66504664      11.44866717       6.19125326       0.03092400      -0.04260916      -0.02614074
Ar      15.03076222      12.58028666       8.65571134       0.05661781       0.00471830       0.00555353
Ar      15.27267009       5.48596116       8.74753028      -0.01003935       0.00858390       0.03307767
Ar      -0.00006395       2.51791813       8.08340143      -0.14102772       0.06605439       0.02573086
Ar      13.16137162       4.18784258       6.05756663       0.02195352       0.03068167      -0.02577331
Ar       1.01716536       7.21253042       8.15959346      -0.03801278      -0.01214141      -0.00327280
Ar       8.53290099      13.09710338       7.62072424      -0.06662128      -0.01736376      -0.06329775
Ar       3.33468993       2.56299654       3.86074600       0.00764947      -0.12477751      -0.03003422
Ar       6.73350144      16.25781377       5.95426368       0.05801381      -0.04334735       0.00169089
Ar       5.40781933      14.30767173       0.69623850      -0.00960726      -0.03998288      -0.02089924
Ar      13.18090801      11.32982156       0.39228581      -0.05087700      -0.05191913      -0.02109086
Ar       6.91813990       1.81651482       1.80132942       0.06018890       0.00469706       0.01541669
Ar      10.66510000       4.25651557       8.46338438      -0.06285083      -0.06607560      -0.03105355
Ar      13.97427577      12.08376469      12.81718979      -0.06897756       0.04703000      -0.00113571
Ar       9.86275614      15.36392941       4.50129868       0.17420592       0.09449020      -0.05872565
Ar      10.17527522       2.77823889       2.03483457      -0.02060485       0.02677108      -0.02342839
Ar      15.30655081       2.99086975      14.01288626      -0.09167724       0.03889843       0.02778422
Ar       7.53059382      10.37197189       1.03075779       0.01850599      -0.04404846       0.00932172
Ar      10.85192734      13.11647311      14.17011179       0.06034757       0.01311386       0.03475280
Ar       1.76263065      14.95085595       0.32894333      -0.06094433      -0.02432799      -0.01997007
Ar       7.05755977      12.60198535       3.79064115      -0.08259253       0.00761565       0.04292727
Ar      16.27124846      13.65718986      15.50183094      -0.01502581      -0.01927378       0.08856192
Ar      12.30673337       7.74052499       8.80053280      -0.06591573       0.04664916       0.07232517
Ar       7.11544235       3.72022170       9.90663229       0.00321727      -0.11932416       0.01297000
Ar      16.81967388       8.74606781      16.41324612      -0.07008666      -0.06803170       0.00990481
Ar      10.09026936       9.74076861       3.21120680      -0.09812094      -0.14526124      -0.01624975
Ar       7.42610259      13.86966716      14.06320925      -0.01425152       0.04052135       0.00883106
Ar       0.83471957       4.34319087      11.29312353      -0.02557205       0.03908526      -0.06282190
Ar       0.85825746      13.98365128       4.87539563       0.05629833      -0.02522531      -0.00167506
Ar       9.54245579       5.18200210       4.93547878       0.06997399       0.02667554      -0.03578883
Ar       6.67262113      17.12844318      15.85181580       0.08379277      -0.05286454       0.03204019
Ar       6.82439422       2.65692437       6.22967922       0.00087510       0.05917680      -0.02227171
Ar       9.00834715      13.60218282      17.12105479       0.12991930      -0.04774927       0.00515031
Ar       3.70524647       8.52539198       2.31286346      -0.01360846       0.02667784      -0.01944616
Ar       3.06305308      16.84061302       7.05268513      -0.00767842       0.02715830      -0.07701959
Ar      12.87347112       1.65435639      17.23558301       0.03243070       0.04437129       0.01284889
Ar      15.49086156       9.22718188       6.96043605      -0.02827075      -0.16211834      -0.02756066
Ar       4.61667398      13.53970616       7.72432547      -0.03809588       0.01922278       0.05796545
Ar      10.06488507       9.88154315      16.15316395       0.00169084       0.00058796      -0.03971156
Ar       3.57493130      12.38198706       3.41386539       0.04585488       0.03891466      -0.04385176
Ar      17.32355092       0.26028973       4.53085888      -0.03826578      -0.06819261       0.01283443
Ar      17.32299263       0.01851496      15.21690239      -0.01086904      -0.09418629      -0.03352462
Ar      10.26575058      16.78142153      14.43379042       0.09345033       0.01943788       0.04199361
Ar      12.78796481       5.59376639      15.52781388       0.00428523       0.06981920      -0.03287158
Ar       7.88012227       1.49131522      13.05079813       0.09354308       0.06893840       0.02352510
Ar      11.28773270      15.47401101      11.36974431      -0.00918428       0.06927245      -0.04060121
Ar      14.14933147      10.79488142       3.88787642       0.06245877       0.03534437       0.06431739
Ar      16.09349424       7.86665763       3.01720370       0.07442349      -0.11078741       0.06654266
Ar      12.30384280       8.17346710       5.39471955      -0.02942482      -0.01178142       0.04104546
