108
Lattice="17.35 0.0 0.0 0.0 17.35 0.0 0.0 0.0 17.35" Properties=species:S:1:pos:R:3:momenta:R:3 pbc="T T T"
Ar       0.69447337      10.40964490       1.97117798      -0.01155642      -0.01641252      -0.03234441
Ar       1.71875564       1.44331214      10.75055542       0.11054087      -0.03833247      -0.02644710
Ar       3.41582677      15.31358724       9.35895628      -0.04780874       0.02496130       0.10327070
Ar      14.50277490       0.22446204       5.79524937      -0.02597707       0.04677825       0.09661836
Ar       6.04323041       2.94179283      12.99626469       0.01960762      -0.01507700       0.02363628
Ar      11.84224800       7.12176071      13.17024240       0.06154525       0.00154654      -0.11032826
Ar      12.94307823       4.38154243       1.31438502      -0.08699933       0.03191171       0.01131500
Ar      13.79040864       1.55567605       8.89750137       0.00364839      -0.05261626       0.03954898
Ar      10.74246257       8.44769689      10.19279832      -0.04254920      -0.00771807       0.01422885
Ar      15.08989789       5.34101202       4.83365488      -0.07749151       0.08683251      -0.01099736
Ar       1.00045031      12.83414658       8.21489765       0.05094901      -0.03032008      -0.04078559
Ar      16.58690925      16.11861592       8.35868998      -0.05612464       0.04140007      -0.01730775
Ar       5.46365085       8.49475805       7.34086553       0.05548293      -0.05759733       0.05895881
Ar       2.32917592       9.96931384       7.13744998      -0.01868118       0.08413858      -0.03935311
Ar       3.86378149       8.41029061      10.86907690       0.04206864       0.04757014       0.03204328
Ar       9.03416931       6.54445948       0.52772252       0.02574933       0.11295182       0.03045337
Ar      12.20931810       1.32218524       2.94715746       0.06004929       0.10696570       0.00843513
Ar      15.18516945      13.41034073       0.44481139      -0.04776343       0.03831566      -0.06516475
Ar       5.17523832       6.77395349       3.38772366      -0.07830301      -0.01421155       0.06362273
Ar      11.96991471      14.24537257       1.17417011       0.00677168      -0.02711616       0.05574978
Ar      10.15909695       0.66861731       5.47196000       0.05500385       0.00965264       0.07569468
Ar       7.13137381      10.17589990      10.16986108       0.04058222      -0.07202359      -0.00030146
Ar       1.90122442       9.84024155      13.82180871       0.07247003      -0.04511615       0.01982711
Ar       9.24889145       7.65364653       6.19542719       0.04685123       0.08309156       0.02004661
Ar       9.97598030       2.80755429       0.12897115       0.00637889       0.10307044       0.01794402
Ar       6.40913841       3.83612779       0.71870624       0.09305354       0.07816415      -0.01115604
Ar       7.63091235       0.71718950       2.89359632      -0.06403689      -0.02961005      -0.08560050
Ar      12.00760158       7.70333815      16.65405079      -0.00497817      -0.04595427       0.00532771
Ar      13.04912587      15.25102242       9.30612798      -0.02926968      -0.00975873       0.08175867
Ar      10.93638096      11.54561222       8.99955442      -0.08036328      -0.00960462      -0.03038375
Ar       3.15616345       5.06484400      10.50418768       0.04270914       0.00732846      -0.11439725
Ar      13.80191394      14.89931921      14.75955663      -0.08337101       0.00842355       0.01081916
Ar       8.82828980      11.38901002       6.13118770      -0.11654205       0.02811112      -0.04413429
Ar      12.19752394       4.63741013      11.05272009      -0.02370735      -0.08146220       0.06812059
Ar       1.12706218       7.31746909      16.11022104      -0.05316024      -0.00886938      -0.03151136
Ar       8.64610740       5.38001990      14.03831746       0.01917863       0.06475644      -0.05320823
Ar       0.50616277       6.14566207      12.57941760       0.00265287       0.00628415      -0.08894575
Ar       9.65516532       1.93819635      13.22185504       0.05278752      -0.06228996      -0.03708596
Ar       9.89614451       0.77492854       9.55478090       0.12224354      -0.10487890       0.03036793
Ar       1.58730543      16.01036253      12.97115352      -0.11929606       0.00995661       0.01832665
Ar       2.56989122       3.46612225       0.02804004       0.02530976      -0.07558062      -0.09584923
Ar       3.51286310      17.30726020      16.73618384       0.05975736      -0.04640275       0.01749085
Ar       7.80631046      13.62113477      10.68434595       0.04444806      -0.02806507      -0.09935520
Ar       1.62293425       5.18549312       2.73757509      -0.11984760      -0.00350822       0.04164055
Ar       0.45813185      10.36451443      10.75649308      -0.04647229      -0.03264943       0.00871385
Ar      14.76948908      16.05847569       2.62172453       0.06045131       0.04647551       0.05336268
Ar       5.58787761      10.00874109      13.90140408       0.01758261       0.00758711       0.01110324
Ar       3.82930221       6.03325273      14.06410979      -0.03066569       0.03293109      -0.03418012
Ar       3.97263766      14.06165064      15.19617483      -0.00762995      -0.02949510      -0.08763334
Ar       6.14530861       1.96162949       9.10255791      -0.06931689      -0.05849968       0.04728335
Ar       3.37966326      12.66307370      11.69617233       0.10258864       0.11780050      -0.01678976
Ar       2.68101688       2.42836463      14.00141071      -0.01029278      -0.04206346      -0.03709430
Ar       4.68315879       7.17023432       0.09430359       0.08898144       0.00583912       0.02983926
Ar      14.12724982       7.89010146      10.47156300       0.03259978       0.02856798       0.02845673
Ar       3.45867509       0.28596843       2.83286817      -0.02957982       0.07095174      -0.12247383
Ar       2.91254711       6.30280402       6.28469475      -0.05668902      -0.00408252      -0.01680909
Ar       4.00518416      10.74375443      17.01329684       0.01691960       0.02230231       0.04384407
Ar      16.28463757      13.38579767      11.61246286      -0.02614207      -0.10387448      -0.05458516
Ar      16.29659153       3.32623162      15.75942053      -0.05992558      -0.01464056       0.10226781
Ar      12.06831309      10.10324776       5.88882879       0.00620702       0.02932523       0.06166623
Ar      14.65426596      11.72099363       8.70389474       0.00216795       0.07241174      -0.08329115
Ar      17.19005540       3.85882673       8.09872275       0.08413996       0.01907108      -0.02746883
Ar      17.11709527       2.11201431       5.03259025      -0.02293526       0.03041741       0.00757502
Ar      12.21245468       3.37928328       5.96196651       0.01154377       0.00231058       0.07599056
Ar       1.06105526       7.28768850       8.89040338      -0.06947731      -0.03202502      -0.06238934
Ar       8.47215652      14.77830785       7.24647325       0.05494262      -0.03423324      -0.04806932
Ar       3.23357453       2.87688614       7.04086580      -0.12744552       0.01210769      -0.05766640
Ar       6.13163850      17.24650901       6.00919861       0.00521991      -0.00928033       0.00033498
Ar       5.17611430      14.09750730       1.76426647       0.03057863       0.06917062      -0.04967687
Ar      15.78008070       9.89350125      16.15678136       0.07976925      -0.13721306       0.07181713
Ar       4.68217310       3.24038576       3.91602122      -0.00547507      -0.08243142       0.11460555
Ar       9.69690897       4.79118653       8.44891091       0.06602835       0.00729272      -0.01115336
Ar      14.38135602      10.58738894      12.74897794      -0.04613578       0.01446270      -0.02541245
Ar      11.81670680      13.72597443       5.79600838       0.03401212       0.02469931      -0.00353228
Ar       8.98051245       4.66858321       3.89155678      -0.05705155       0.00566058       0.01518706
Ar      15.00807625       0.05355653      12.04962180      -0.06148928       0.07736013       0.05454198
Ar       8.23821047      11.89742445       0.94543520      -0.05789738      -0.08367354      -0.05240930
Ar      10.29962655      11.93313595      12.80669680      -0.00626249       0.01096779       0.04925614
Ar       0.96355823      14.84172611       1.95246778      -0.00941487      -0.01002389       0.02859096
Ar       8.87497389      14.35087087       3.58332711      -0.00262408       0.01579221      -0.06959011
Ar       0.50288218      13.83319098      15.18390110       0.04045514      -0.08679558      -0.06799821
Ar      12.58333938       6.90732607       6.81037308      -0.03011058       0.03928581       0.00857568
Ar       6.81080313       6.61192185      10.19580218      -0.01805142       0.02933950       0.02834082
Ar      14.73545075       6.31244164      14.91652901       0.08696529      -0.09685896      -0.00911228
Ar      12.44174314      10.47060656       1.77210838       0.04826041       0.01316918      -0.03598978
Ar       7.73218649      14.14504585      15.21767260       0.01298403      -0.11977375       0.06649923
Ar      16.10145793       3.25378142      11.35501870      -0.07383068       0.03690052      -0.08796389
Ar      16.76928407      14.37259522       5.09178207       0.06279653      -0.07242467       0.07729058
Ar       8.09147884       9.19578908       3.12740147      -0.03835731      -0.00908743       0.00413481
Ar       6.92899336       0.43844626      15.81875098       0.02360729      -0.00443182       0.04996532
Ar       6.67520458       4.74919339       6.92353678       0.07572993       0.02548229      -0.01472052
Ar      12.41126090      11.48739712      15.85881601      -0.12112164      -0.03600762       0.06082773
Ar       4.38012578      10.53348035       3.81101206      -0.02861830      -0.05755778      -0.04308412
Ar       2.23205336      16.92387848       6.02732606       0.06601698      -0.05270102       0.00178265
Ar      13.96666953       1.05751246      17.14707878       0.01060582       0.01791392       0.05458188
Ar      16.45410710       8.47953583       6.44731033      -0.01060701       0.13555409      -0.00475413
Ar       5.23195070      12.58281645       7.72713844      -0.07166212       0.03485950       0.00783252
Ar       8.60995792       9.41803259      15.71863290      -0.00488225      -0.04602143       0.03685381
Ar       3.43694465      13.95702380       4.63856745       0.01740713      -0.01000330       0.03432710
Ar       0.02591631       1.12074269       1.34839520      -0.01883894      -0.01562504      -0.06834521
Ar      16.79586626      17.24651916      15.20082427       0.04901855       0.09265093       0.02983399
Ar      10.77107722      16.64265060      16.13982214       0.06649532       0.08969792      -0.08277349
Ar      12.54826483       2.97318560      14.62143658       0.01166627      -0.02241307       0.00111207
Ar       5.26666693      16.59257903      12.46512503      -0.05449044      -0.09302171       0.03372915
Ar      10.56413279      15.93911119      12.68768140       0.04922059       0.06067582       0.02527989
Ar      15.39476869      11.37580529       4.12469660      -0.04477591       0.01822863       0.00844649
Ar      16.14457658       6.52052064       1.27353229      -0.00862052      -0.05156189       0.00320302
Ar      11.51974756       7.47541711       3.23718138       0.07991475      -0.00847793       0.02732486
