108
Lattice="17.35 0.0 0.0 0.0 17.35 0.0 0.0 0.0 17.35" Properties=species:S:1:pos:R:3:momenta:R:3 pbc="T T T"
Ar       0.91651212      13.64771881       4.54946819      -0.02596856       0.06692564      -0.08606351
Ar       9.24865652      11.24297895       5.29272642      -0.01590657      -0.03892608      -0.04482090
Ar       6.11338813      11.43088373       2.15519449      -0.02618331       0.12757835      -0.03803118
Ar       0.82584062       7.01651185       8.95883878      -0.01024703       0.01145200       0.02282584
Ar       9.27390925       3.89413838      13.37961557       0.00488888       0.03137578       0.13152526
Ar       4.28250276       7.44143987       9.70520948       0.01508129       0.00059178      -0.07109441
Ar      16.50827182       5.34869697      12.33326327      -0.10792768      -0.01674003      -0.05337349
Ar      14.06141844       5.27072737       9.82720621      -0.06596639       0.09528263      -0.00963799
Ar       8.37294815       0.86821431       6.02066876       0.00494583       0.01772277      -0.12395280
Ar      12.22337153       4.71386921       6.72647786       0.07602371       0.08201646      -0.06936778
Ar       1.29568476      13.77864906       8.26163385      -0.08635334      -0.04625340      -0.05628441
Ar      13.43931741       0.48680648       1.35895745       0.06516153      -0.00105761       0.01090770
Ar       9.86423494       8.59305050       3.43774524       0.02217285      -0.02464270      -0.02238766
Ar       4.98768401       1.07888396       7.54195041       0.00111160      -0.08683010      -0.01100521
Ar       7.21283772       4.26895674       7.86947480      -0.02820222      -0.01593944      -0.07661622
Ar       3.60782271       0.94272356       1.49926611      -0.07350745       0.05275276       0.02277909
Ar      17.08242000       0.97914028       0.48938472       0.04781920      -0.01993329      -0.01559437
Ar       9.76705014       2.75448678       2.62119683       0.03344151       0.05777846      -0.07874449
Ar       7.20340328       6.52908127      12.19712598      -0.02767803      -0.03575115      -0.03029979
Ar       1.19122082       8.59234119       5.14799551       0.06211207       0.03486345      -0.03450106
Ar      13.51620386       1.91379421       4.36138108      -0.02290741       0.06694227      -0.01105864
Ar       4.39277684      14.82151517       7.28118495       0.04882421       0.05892385      -0.09083725
Ar       4.89256561       2.16186227      14.68978326      -0.10667053      -0.08139348       0.04098232
Ar       5.68024261       8.82633776       6.88066384       0.04509766       0.00288510      -0.00150536
Ar      10.52503621      16.38708648       3.18537108       0.06432979      -0.00180329       0.04722594
Ar       5.87561121      16.10155540      14.20135000      -0.07980450       0.11484393      -0.04219378
Ar       6.41070974       6.40189874      15.62137339       0.09756799      -0.06649753      -0.12859203
Ar      12.20714798       2.57167202      16.01203683       0.05033971       0.02303767      -0.02119665
Ar      12.51810173      11.79402569       7.77846304      -0.06672127      -0.10643013      -0.02143647
Ar       3.20959096      14.33990590      11.45244041       0.01670652       0.03355813       0.04157430
Ar       6.08571842       7.55535834       2.83922970       0.02405226      -0.05939748       0.12556248
Ar      15.65814475      14.85907081       2.30447534       0.02017966       0.05214773      -0.01679111
Ar       9.19212859       5.64670321       5.08007410      -0.02576019       0.03410962      -0.04006234
Ar      13.33367364       5.22135414       3.10313224       0.10437758       0.06368980       0.13301315
Ar      15.07363086       4.52286363      16.98847483      -0.07442283       0.00046627       0.04023228
Ar      16.86045765       7.38151373      15.74909401      -0.06581575      -0.06000497      -0.04260956
Ar       2.67571728       5.42942438       6.13821206      -0.07678703      -0.00473129       0.01966365
Ar       7.05454229       2.60012039      11.19191387       0.13582975      -0.05176202      -0.03569521
Ar       3.94458612       0.23224627      11.16278150       0.10153531       0.06542298       0.00147264
Ar       1.47734459       2.42623310      12.64173023       0.01462410      -0.01533097       0.03042703
Ar      15.52922338       6.08194575       6.68182783       0.00789496      -0.00226960      -0.03856626
Ar      11.74916994       8.44768897       6.42269254      -0.03070425       0.09625894      -0.00728538
Ar       1.62476687      17.23809960       8.07164175       0.07678253       0.01700243       0.00192569
Ar       7.23713785      10.22700000      16.06817629       0.03667952      -0.00787243       0.05668588
Ar      10.48686643       6.01427842       0.81754147       0.10001735       0.01390852       0.03129814
Ar       1.54707262       4.26779164      16.52665291       0.03784815      -0.08878211       0.03337220
Ar       3.95645320       8.79670963      14.03333513      -0.05169322       0.02225363      -0.01628317
Ar       3.33342820       4.95187596       2.72720529       0.04713114       0.01639312      -0.04906773
Ar       4.46575640      12.56578472      14.86240335       0.06749172      -0.07442995      -0.01116178
Ar       3.80441843       3.62767007       9.52706730       0.08540170       0.01521821       0.08167621
Ar      12.19589179       2.18664873      12.60344690       0.00169111      -0.04492039       0.00855331
Ar       2.68534153       5.77155464      12.69058078       0.02583847      -0.01823505      -0.01277053
Ar       6.13056231       3.89764018       0.80582393       0.03299904       0.02796463       0.07081503
Ar       8.48607780      10.27270687      12.28120933      -0.07020352      -0.01020856       0.03413056
Ar       2.00184000      10.93647613       2.59565369       0.01198022      -0.02184474       0.00434261
Ar       2.65559234      10.51642497       8.40941468       0.01835768       0.06777438       0.02211694
Ar       1.16253028      10.67326793      16.06000615      -0.00161479      -0.00778684      -0.08390962
Ar       2.06238970      16.46558540      14.72038832      -0.00823794       0.00120268      -0.01285746
Ar      14.69872232       8.19244915       4.19409161       0.00509118       0.03797700      -0.02236014
Ar       8.81644540       8.48331917       8.63768203      -0.01454969      -0.13261997       0.05240412
Ar      12.84250748      16.45679641      13.53914427       0.05491504      -0.10250976       0.02805521
Ar       4.64815907      15.15640575       3.70057424      -0.09346140       0.06332901       0.02469886
Ar       5.17846783       2.72343559       4.62370290      -0.08767957       0.03648603      -0.10599702
Ar      16.99394433       3.53870424       3.83066673      -0.06059807       0.06352879      -0.04246548
Ar      16.11241361      11.96885152       6.45796272       0.13513763      -0.01356289      -0.00483831
Ar       6.08248900      11.71451069       8.10574459      -0.08866095      -0.00580393       0.01131690
Ar       6.27073171      14.73040033       0.26085687      -0.02440319      -0.03077675       0.06638383
Ar       9.41449175      12.71204635       9.24423996       0.05542350      -0.00971218      -0.02404586
Ar      12.98321156      11.72255374       4.22770420       0.01891465       0.00382854       0.01797980
Ar      10.95164228      10.87688772      15.40307280       0.00580544      -0.06844774       0.07023089
Ar       8.51075547      14.73502562       6.00866331      -0.01774019       0.07965131      -0.00541585
Ar      10.23557697       2.41854272       9.31700771       0.00736329       0.06351319       0.00525896
Ar      15.09909497       9.36853981       8.74416734      -0.09492843      -0.10860307       0.10748507
Ar      15.65777188      15.79652642       7.21637182      -0.08906373      -0.06726970       0.01636722
Ar       7.18581113       0.09238360       2.52506404       0.04996132       0.11283233      -0.01577095
Ar       7.18218677      16.86938838       9.75937417      -0.02230521      -0.02533852      -0.00262563
Ar       9.35829402      13.54795654       1.77714255       0.03232507      -0.04832914       0.06274341
Ar      15.86870223       1.99567355      14.26260314       0.03319941      -0.00894314       0.00978584
Ar      15.80257576      11.24306470       1.94286884      -0.03276967       0.03608112       0.00904900
Ar       0.17563645       0.04042354       4.23543119      -0.04216121      -0.00168371       0.06309350
Ar      15.56810710      15.43008964      15.77530138      -0.01740351       0.07819783      -0.04163835
Ar      16.84059963       2.74789589       7.22908302      -0.06514919       0.08137371       0.07254686
Ar       9.28530146      16.79870475      12.83449174       0.04296863       0.01307325      -0.00569187
Ar       0.57554954      13.51508120      13.46046056       0.07264374      -0.03438497       0.01363648
Ar      11.61246012      10.04719090      10.83911344      -0.12492562      -0.00860621       0.00601256
Ar       4.85454560      11.18403443      11.46766111      -0.05670329       0.00823306       0.05375499
Ar      14.69998435       8.43287494      12.06458745       0.00457884      -0.00171129       0.00204121
Ar       4.06789669      11.62903917       5.18120415       0.08127226      -0.01332530      -0.01866251
Ar       9.79308269       7.13665004      14.76781717       0.03156411      -0.00871707       0.03731224
Ar       8.42576239      13.46969186      14.93269489      -0.14983332      -0.07436391       0.02775050
Ar      12.89470282       5.53244434      14.21680099      -0.05316502      -0.04420952       0.07646935
Ar      13.19222006       8.67698747       0.82656442       0.03636082       0.03243337       0.07264717
Ar      16.08078339      16.47673408      11.45206210       0.04162664       0.00599771      -0.12962142
Ar      13.94947702       1.30777840       9.18161432      -0.00021635      -0.12257489      -0.03303943
Ar       1.25960889       9.90233397      11.93917851       0.00137136      -0.09783696      -0.04159529
Ar      12.45675539      15.51899534       6.08078491      -0.04244610       0.05647838      -0.00713493
Ar      14.83407071      12.18824996      11.60944078       0.03934831      -0.01884544      -0.00717207
Ar       3.34772433       7.64310469       0.15711960      -0.01015991       0.01908582      -0.00168754
Ar      10.49683588      16.04630823      16.61646309       0.09426309       0.04824799       0.00086061
Ar       1.77381047      14.52380224       1.29071216      -0.05510451      -0.11993597       0.04218132
Ar      11.01140608      16.50107656       9.63387836       0.01005587      -0.00977031       0.07225484
Ar       7.79651910       0.85594438      16.41521779       0.07825884      -0.08578168       0.08956565
Ar      10.50143337       6.26126184      11.32731994       0.00238105      -0.02121714       0.00071482
Ar       7.11770382      14.14128315      11.47648986       0.06503087       0.03265527       0.04209563
Ar      10.92670545      13.34399068      12.41012373      -0.00238203      -0.03160403      -0.06963449
Ar      13.11773434      12.98109124       0.13808532      -0.06061974       0.02581924      -0.06089693
Ar      14.80600136      10.42512111      15.04777625      -0.01031821       0.08365039       0.02057899
Ar       0.18842789       6.62190863       2.05426603      -0.14016568      -0.02855746      -0.04243443
