108
Lattice="17.35 0.0 0.0 0.0 17.35 0.0 0.0 0.0 17.35" Properties=species:S:1:pos:R:3:momenta:R:3 pbc="T T T"
Ar       0.93209925      10.23563912       3.86631935       0.03034028       0.03652004      -0.10439544
Ar       3.09196949       4.06157357       9.57785949      -0.03089432      -0.07073687      -0.01324291
Ar       7.49963473      16.84686482       6.26227473      -0.04593897       0.05030959      -0.00386410
Ar      17.22363843       1.85872500       8.57103662      -0.05408981      -0.01385098      -0.01650938
Ar       9.29033499       3.94544523      10.89312020       0.00671721      -0.04371643      -0.01389515
Ar       7.09860611      10.73986099      13.50031839       0.00517024      -0.00922080       0.11526762
Ar      14.54072611       4.19355999       0.73227937       0.01936818      -0.02478779      -0.03845209
Ar      13.59195939       2.53787873       7.40767051      -0.07638771       0.02637613      -0.04505535
Ar       9.00504772       7.72092723       7.46540560      -0.04813121       0.05399845      -0.00221092
Ar      13.27161879       6.65466306       3.06703762      -0.03991034      -0.02821962       0.05109834
Ar      17.18065261      12.80398810      10.65737605       0.02231337      -0.02216406       0.04456700
Ar      16.44329261      16.25182034      11.86545585      -0.05434397      -0.09956466       0.05340245
Ar       5.40818637       9.81681705       6.93264241      -0.00426572      -0.05135292      -0.01769862
Ar       2.39846717       7.51011235       5.32186842       0.03067931       0.00141146       0.05755724
Ar       6.06854935       6.84131274      12.78055058      -0.00075627       0.02555968       0.03070932
Ar       9.31545702       5.54826654       1.09181833       0.04686867       0.01890771      -0.02073189
Ar       0.67356251      14.01908301       3.41295506      -0.05852938       0.09980618      -0.03445633
Ar       9.92547647       8.31882930       3.57704185       0.01274672      -0.00547305       0.04659332
Ar       6.22619180       5.84502439       9.31651147       0.05314350      -0.00397454      -0.01964160
Ar      15.54859614      10.21733606       1.83374141      -0.01977369       0.08768439       0.00086681
Ar      11.05089313       0.75105250       5.77661580       0.05618052      -0.00088148      -0.05491807
Ar       5.02402196      12.30236418       9.87537827       0.01468640      -0.02827495      -0.02450509
Ar       0.59531434      14.95295489      15.07400268      -0.06344738       0.01655582       0.00031224
Ar       7.31894778       6.73135404       4.50178385       0.05873521      -0.06512734      -0.01119710
Ar       9.78538534       2.82871594      15.66393375      -0.00487151       0.05721798      -0.05295546
Ar       6.66034272       2.85655090      13.57497169      -0.05351166       0.03497582      -0.04260023
Ar       7.42183944       0.45004227      17.09679797      -0.00391487       0.02922007       0.04932526
Ar       9.35771732      11.86509099      16.46966379      -0.07033719       0.09829671      -0.01554117
Ar      12.86267527      11.80566880       8.93014406      -0.06834347       0.06197454      -0.04467533
Ar       7.39241420      14.76612673       9.50831016       0.11173628      -0.05632281       0.02872650
Ar       5.70587596       4.90500405      16.11993788       0.10296317       0.08123694      -0.05877687
Ar      13.92329772      15.26645617      14.68159302      -0.03637364      -0.10896133       0.02669162
Ar       8.82569417      10.92972462       5.92093322       0.02889125       0.07133128      -0.04151164
Ar      12.40900378       6.40180407       6.67000016      -0.06287372      -0.05367351       0.01348496
Ar      11.78974040       5.60827392      13.66074977      -0.07333420       0.15836614       0.01829707
Ar       9.02551574       6.38015075      15.14042026       0.03358428       0.06218817      -0.04624168
Ar      16.85501009       6.61274696       2.17165717       0.05219856       0.09511542      -0.13166112
Ar      12.18469339       2.19064262      12.29300271      -0.03894958       0.12765392      -0.02868849
Ar      10.30648602       0.44142933       9.37030576       0.03891930      -0.00364475      -0.07151723
Ar       2.04385164       0.70090259      10.95357699       0.01584527      -0.08013827       0.01415068
Ar      15.32689807       3.90174603       4.83770531       0.03374785      -0.06573887       0.05437472
Ar       9.17855207      16.01859932       2.58499180       0.02987273       0.06072130       0.11040335
Ar       2.87876851      13.89155796      12.36894505       0.02040510      -0.03543297      -0.02088342
Ar       4.51747467       7.70213909       2.56068231       0.04021544      -0.09153521       0.08961890
Ar      15.54382168       8.32057025       5.52331669       0.01958295       0.02995199       0.06682076
Ar      16.28182726      16.08147407       1.11291957       0.13463445      -0.08346537      -0.04144218
Ar       3.50110986      10.40038440      12.25392841       0.02856638      -0.03500561      -0.07580986
Ar       2.37275290       4.95203418       0.95476510       0.04540587      -0.04569162      -0.01588802
Ar       3.74281917      16.81447775      14.02751308      -0.07956745       0.02432292       0.01150717
Ar       6.61516649       2.36683931       8.59607498       0.01941060       0.06743928       0.01231816
Ar      15.15778628       7.24945383       8.74225018      -0.06188032       0.01150074       0.01854965
Ar       3.03047939       3.47009360      13.39471745       0.04525966      -0.00990235       0.05518816
Ar       4.42669437       4.59303863       6.57931923      -0.01118717      -0.07540335       0.06689499
Ar      12.18805186       8.43222496      10.10212701       0.02055556      -0.04703147      -0.02118902
Ar       3.67822462      11.88549920       2.11653156       0.03722012       0.00156361      -0.02418707
Ar       3.09057884       8.01408231       9.46497366      -0.12298045       0.00582076       0.00420784
Ar       1.93140156       8.65055200       0.11985004       0.01772208       0.01815508       0.00471186
Ar       0.71836296       1.26938896      15.57841620      -0.09533736       0.08370139      -0.07646799
Ar      17.09395335       4.90016052      15.71314940       0.03154409      -0.09229105      -0.05160663
Ar      12.00096932       9.66187267       6.14235344       0.05101767      -0.01086567      -0.02697687
Ar      13.46138105      11.57401144      12.41240751      -0.00710130       0.03690087      -0.08951617
Ar       3.75712257       0.82327862       6.50862829      -0.00483060      -0.04968496      -0.00897851
Ar       0.77914939       2.14336637       3.53388057      -0.09269979      -0.02287022       0.00770058
Ar      14.49620934       0.39203433       4.34091838      -0.03053454      -0.04164177      -0.01561517
Ar       0.54519163       6.05276301      11.42770603       0.02720374      -0.01638866       0.05868649
Ar      10.00445602      14.35018808       6.16308646       0.04633020      -0.00321519      -0.01547449
Ar       4.91693673      16.21186351       3.36680457       0.00728367      -0.06173501       0.04928932
Ar       8.29631027       2.28122699       3.52607767       0.00569809      -0.03580857      -0.05433184
Ar       6.86980953      13.81642103       1.17800585      -0.05121046       0.02220906       0.04414703
Ar      16.38059867      11.88639557      14.05899905      -0.07373716      -0.01339521      -0.01224537
Ar       4.90449841       2.71741158       2.86499481       0.01342029      -0.00112177      -0.06720105
Ar       9.75470998       3.97016752       7.14439538       0.02137630       0.00827975      -0.09500363
Ar      10.83296578       9.57297655      14.10102741      -0.01615063      -0.02538644      -0.10168808
Ar      13.26913230      16.24010369       7.76048532       0.04111239       0.12152253       0.08559748
Ar      11.22647102       1.92227760       1.37297709       0.07093845      -0.02155225       0.01283598
Ar      12.89864494      15.12888974      10.86749301       0.02959200       0.06737898       0.00364770
Ar       6.21687188      13.63213267       6.45891476      -0.05895221      -0.04014214      -0.15794780
Ar       4.00057331      12.47714543      15.92551185       0.07911200       0.04980368       0.01425905
Ar       3.18006876      15.44863649       0.38567068       0.10153938      -0.06495065       0.09050027
Ar      14.17896747      14.11156051       2.92008056      -0.03129213      -0.02681320       0.12228986
Ar       0.64891245      12.12881627       0.11032387       0.01160306       0.05306072      -0.01050972
Ar       0.19640634       5.34731755       6.99690025      -0.12494650      -0.00424848      -0.04432213
Ar       9.02997557      11.04800329       9.56758332      -0.07008396       0.04584166       0.00399226
Ar      16.58185597       9.35781700      11.41057122      -0.00116388      -0.09288796       0.01181242
Ar      10.72609173      12.38923153       2.70164355       0.04108181      -0.07776084      -0.10386056
Ar       7.13723511      14.35307175      14.05207983       0.02582081       0.03816130       0.03115106
Ar      15.02769638       6.81797575      13.30761146      -0.01325834      -0.04854988       0.10656064
Ar       2.90178015      12.63657002       6.44486805       0.09610061       0.04423557       0.04476715
Ar       7.29112178       8.86227383      17.11675816      -0.00592680      -0.12975177       0.07635527
Ar       6.35443850       0.07796095      11.50864998      -0.00641782       0.06779880      -0.02327300
Ar      12.83603390       5.14921174      10.34009142       0.00111973       0.02301164      -0.04032776
Ar      13.29253818      12.22259353      16.20612483      -0.15008259      -0.01152938       0.09113457
Ar       3.32503614      15.57582693       8.95964695       0.04062104      -0.03413090       0.04122449
Ar      16.54181454      14.34555500       7.52182726       0.04955353       0.02380475       0.00625305
Ar      13.99318403       1.25064562      15.48667629      -0.07493013      -0.09429586      -0.00761502
Ar      11.48035475       4.00397284       4.05360085       0.03230748      -0.07573345      -0.05292344
Ar       0.47578290      10.11672479       7.97432221       0.11155312       0.02554916       0.07960318
Ar       2.66231320       6.98882598      14.49187916       0.05914768      -0.10534705      -0.00685878
Ar       6.83009407      10.76737613       3.17759280      -0.02789481       0.00137430       0.04290199
Ar       4.04231349       1.94962613      16.78001126      -0.00291453       0.09154225       0.08850748
Ar      16.38523909       2.96531030      12.54404244      -0.00459293       0.01677193      -0.00990837
Ar      11.21279058      15.27693393      17.11091187      -0.05646893       0.03406896      -0.03619953
Ar       9.13723836       7.33541293      11.29665285      -0.03727908      -0.01246978       0.02926652
Ar       9.53084744       0.21669809      13.15344307      -0.00494595      -0.01252881       0.01528415
Ar      10.75541562      13.75402118      13.44077157       0.02406715      -0.00481812       0.06265859
Ar      14.94265613      11.71062326       5.92205404      -0.00727933       0.08498489      -0.05223965
Ar      14.39100821       7.82835730      16.47261707      -0.00607669      -0.03053880       0.09491226
Ar      11.82306275       9.51596784       0.90316984      -0.01212831       0.06756254      -0.04555040
