108
Lattice="17.35 0.0 0.0 0.0 17.35 0.0 0.0 0.0 17.35" Properties=species:S:1:pos:R:3:momenta:R:3 pbc="T T T"
Ar       0.43315307      12.51291210       3.22219951      -0.04149181       0.08540768      -0.02503323
Ar       3.48916527      17.19198102       8.90560801      -0.00987595       0.04293967      -0.05585561
Ar       2.19762258      11.06484035       8.76238134      -0.08217074       0.02338852      -0.06285716
Ar      12.85360731       2.45298366       5.93357629      -0.15770197       0.04854973       0.01300933
Ar       3.28506301      16.01762947      14.58452950      -0.03428664      -0.01579429       0.02095878
Ar      11.91416031      10.84381234      14.31733160       0.13073157      -0.02003604      -0.01557003
Ar       0.79671279       0.44513770      16.89691475      -0.09298790       0.06027077      -0.00731129
Ar      15.21118302       4.40732707       9.59704515      -0.06401186       0.05475426       0.08068289
Ar      11.32835352       4.01759070      11.65377032      -0.02334759      -0.07262285       0.00735256
Ar      15.09906285       6.45733357       6.61755344      -0.01272079      -0.07052822      -0.04347910
Ar       3.03420538       9.90553035       5.19976840      -0.05205379       0.00734155       0.08069586
Ar      15.16286564      13.47892210       6.09411337       0.02271687      -0.04814601      -0.04759100
Ar       3.82358621       6.06039428       8.50038190      -0.00831403      -0.06924460      -0.05406240
Ar       2.81397752       7.29725828       2.68270029      -0.10677925       0.04482231       0.02514402
Ar       5.17982836       1.34438565      12.18799618       0.05443702      -0.03735869      -0.04196156
Ar       5.38460003       8.82750099       0.61466988       0.07537839       0.01938025      -0.00605411
Ar      13.28384410       3.48961143       1.76427201      -0.14976247       0.01229971       0.00981798
Ar      14.31425437       1.35897632      16.20316217      -0.05790035       0.09654959       0.01723600
Ar       4.51224678       5.44337075       5.22694567       0.07699461      -0.01197038       0.04632764
Ar      14.18389698      13.85010206       2.63199169       0.08881801      -0.16504382       0.01287548
Ar      10.04094159       3.64115519       3.67365703       0.04634070       0.05464360       0.00794519
Ar       8.92269976      10.93108245       8.65506703       0.05542705      -0.02913162       0.00613189
Ar       7.74635051       3.74383527      10.58076826       0.09895350      -0.06318207       0.08206806
Ar       8.94785019       7.51994023      10.15085866       0.01158009       0.02889603       0.00682587
Ar       6.94090118       4.15158952      14.33681061       0.01283988      -0.12629046       0.04735593
Ar       3.54589817       2.44081342      15.33560197      -0.07469794       0.02798587       0.01354349
Ar       8.38782245      16.03452889       0.57032571       0.03563842      -0.03544095      -0.06094755
Ar       9.22269264       8.21450559       1.62018026       0.04338242       0.03634608      -0.02665362
Ar      13.33475661      14.81589719       9.31766389      -0.04809129      -0.00015103       0.01864375
Ar       9.89629385      13.67806687      12.89678483       0.09127103      -0.00608292       0.10797775
Ar       3.09139362       0.26597411       5.41887837      -0.01221614      -0.07408913      -0.08669035
Ar      11.19974784       0.26712195       2.21618662       0.13593827       0.01245446      -0.10400229
Ar       6.48559236      11.87461314       6.26697512      -0.00000142      -0.00004523       0.05021712
Ar      13.55897525       7.08102946      11.58160894      -0.03844285       0.08906579       0.00697615
Ar       1.75504123       9.29577293      12.81533334      -0.01107388       0.05465594      -0.02830680
Ar       8.18868798       9.85836301      15.67871662       0.01184082       0.01196911       0.02816641
Ar       3.90892521       5.04057052      12.88075964       0.00636068      -0.01669905       0.07203167
Ar      10.25546200       1.21733697      16.04091878       0.04310195       0.10064527      -0.00152884
Ar      13.97379516       0.87430168       9.50455297       0.04279552      -0.07723838      -0.02403191
Ar       0.39646958      15.78965906      10.26500174      -0.03092177      -0.06415175       0.05875585
Ar       3.87474234      17.01984910       1.33077570       0.02010127       0.05627522      -0.10504983
Ar       3.32622691      13.97180938      11.29885507      -0.02391807       0.07659236       0.08946064
Ar       6.05532973      12.12626586      14.13649145       0.05892873       0.04598979      -0.08434397
Ar      15.99356182       3.64541816       5.06245255      -0.05595959       0.10197282       0.02554841
Ar      15.79175852      12.50799510       9.45865534       0.00147488       0.01347001       0.04402502
Ar      15.30100564      15.58001453      17.05406478      -0.01159327       0.07259738      -0.05691702
Ar       8.61464493      10.11423557      12.17187786       0.04677484       0.07762962      -0.03288719
Ar       5.22963742       8.22198628      14.17080547       0.02751003       0.04268157      -0.03195899
Ar       0.49627822      12.46308569      14.05309511       0.04563038      -0.01050548       0.02604212
Ar       6.63233553      15.58162221       7.42851522      -0.03398618      -0.07587997       0.01068731
Ar       5.27854700       9.78578716      10.59422108      -0.01277183      -0.12483722      -0.06755792
Ar      15.70728021       7.65894032      15.81012628       0.03014183       0.06026059       0.02995892
Ar       3.08400065      10.69146245      15.81929401       0.02500660       0.04304343       0.01557411
Ar      15.26508539      10.31907769      12.58327851       0.08341069       0.00451884       0.07243520
Ar       5.77631949       2.37521466       3.11962328       0.02507786       0.04558621      -0.04014648
Ar       5.42398742       2.39493070       7.52044980      -0.02352082      -0.01427802       0.10400711
Ar       0.20697072      10.19168502       0.26722051      -0.01510541      -0.05286152       0.03557608
Ar      15.35208813       1.91024262      12.63998720      -0.01752779       0.00895431      -0.04120029
Ar       1.47313038       1.75184530      11.73582445       0.04214700      -0.04299218      -0.00350608
Ar      11.95949378      11.59811634       6.43326219      -0.08737667      -0.00019863       0.08398157
Ar      11.87943397      11.56854804      10.50072110       0.02441562      -0.02709166       0.00807706
Ar      14.12384790       9.37115822       8.55091411      -0.09050918       0.02919785      -0.03131299
Ar      15.90902153      17.06102916       6.58696580       0.00980348      -0.09053268       0.03549774
Ar      13.06104807       6.39646457       3.64070243      -0.13927564       0.07778680       0.01854619
Ar       1.07796275       2.16395342       7.69126588       0.10250435       0.03854227      -0.08891008
Ar       9.68170667      15.04486818       9.32015809       0.04303487       0.02858407       0.08431627
Ar       1.87883876       3.23037658       3.27319579       0.05301065      -0.10727811      -0.04295262
Ar       8.36986317      17.29721630       4.00267649      -0.10914649      -0.06859728       0.01057041
Ar       5.33250036      13.93578043      17.06034462      -0.01914940      -0.07006607       0.00007799
Ar      12.79392309       9.20439574       0.36427822      -0.04072344       0.00779291      -0.00293185
Ar       4.65929808       4.83781759       0.53649066       0.03027504       0.01375005       0.01076046
Ar      11.83584660       5.14219344       7.98847909       0.04239289      -0.01855529       0.07146999
Ar      13.90021308      13.97315062      12.55364640       0.14360751       0.06085412      -0.02027528
Ar      11.91596246      16.04126446       6.32646046       0.04318130       0.05153953       0.02465819
Ar      11.59281221       5.79754677      16.92965275      -0.03296374      -0.01294033       0.06858789
Ar      17.26066446       7.41445047       9.58337374      -0.02106786      -0.00863032       0.08902371
Ar       7.55310585      11.10860395       2.41996737       0.01810672      -0.02297523       0.01147528
Ar      11.85872670      15.01902926      17.33824975       0.02861711       0.10541934      -0.02861074
Ar       1.44748874      14.42833596      17.34313981       0.05436230      -0.06465697       0.12443189
Ar       5.95676802      14.36230416       3.20888910      -0.02005816      -0.00169063      -0.08273473
Ar      14.48760958      12.18047904      15.93976998      -0.04873098      -0.01839281      -0.03131610
Ar      10.76317375       7.69057343      14.05852241      -0.04026676      -0.00477568      -0.05386087
Ar       9.79888670       1.78677758       8.15847620      -0.01010531      -0.00250105       0.01285625
Ar      16.38158931       6.87320908       1.91488387      -0.04178741       0.00935199      -0.03517737
Ar       6.36651463       8.30439504       4.31189499      -0.11810680       0.03290781      -0.03821001
Ar       9.22188986      12.80687715      16.83120731      -0.05655561      -0.00892586       0.06300701
Ar      17.18651074       5.55044252      13.13069644      -0.04051637      -0.14323729       0.03723190
Ar       0.50477378      16.01767651       3.06533348       0.05083275      -0.10613088      -0.01678420
Ar       8.24618389       4.76403074       0.78173779       0.06227341      -0.00216105      -0.08473823
Ar       6.51830299       1.34224737      17.09379678       0.05966370       0.02383663      -0.07147903
Ar       8.30985568       5.17319582       6.73167390      -0.02928349       0.04983041      -0.00224452
Ar       9.87429570      14.40371734       3.54806632      -0.07960318      -0.05805441      -0.02211152
Ar       2.07773629       6.53711133      16.34824528       0.01055055       0.00604093      -0.02702937
Ar       1.47955508      14.38278618       6.25290903      -0.03602580       0.05005276       0.00156690
Ar      16.84246603       3.84819435      17.27913847      -0.00400515      -0.01105057      -0.01510931
Ar       1.10997623       6.42020292       5.89991668       0.01495531      -0.03095978       0.08615732
Ar       6.91509189      13.17706313      10.32393902       0.04380461       0.05214728      -0.00511184
Ar      11.02281161      10.80929446       3.16728757      -0.05065847      -0.03393662       0.09684574
Ar       3.60364751      11.57867862       2.22974412       0.01467869       0.03249235      -0.01569330
Ar      14.96276949       0.25039454       2.92558191      -0.06368427       0.02790764      -0.11892508
Ar      17.31780089      16.44830132      13.93900787      -0.10547934      -0.13969963      -0.04250489
Ar       6.64921453      16.37640935      14.51762605       0.00263580       0.02602242      -0.00783586
Ar      13.92948505       4.75609322      14.42149220       0.06378023      -0.02120009      -0.09084723
Ar       8.79584300       0.97577609      12.39049237       0.08253804       0.00423197      -0.04398020
Ar      12.15433366      16.91022466      13.04528805       0.03155203      -0.00401190      -0.07541552
Ar      16.90982389      10.08125550       6.35077551      -0.01399154       0.01036751      -0.08465785
Ar      14.21205391       9.92321606       4.14898855       0.11927559       0.13733769       0.08483270
Ar      11.39644847       8.20609277       6.31358195      -0.03829903      -0.03507996       0.03823810
