108
Lattice="17.35 0.0 0.0 0.0 17.35 0.0 0.0 0.0 17.35" Properties=species:S:1:pos:R:3:momenta:R:3 pbc="T T T"
Ar      17.32505575      11.90515077       3.54032437      -0.01586952      -0.05115455       0.07811922
Ar       3.40347788      16.61738568      10.04524899       0.15364316       0.00511766      -0.09495045
Ar       2.71802834      10.41529008       8.75634946      -0.04134569      -0.05669560       0.00312693
Ar      12.93897782       2.30807141       6.00652036      -0.10673455       0.01483385       0.00606039
Ar       3.92033700      15.97539384      13.93542719      -0.04564676      -0.00189592       0.06366648
Ar      11.14295903      10.87837157      14.60755346      -0.07557452       0.00970864      -0.04325451
Ar       1.41574759       0.95777125       0.96479156       0.03506308       0.04504540      -0.04958663
Ar      15.57614126       4.45904990       8.92102699      -0.03627886       0.04488994       0.05790593
Ar      11.01869240       4.03162932      11.40792404       0.00784746       0.01464851       0.02166968
Ar      14.81747178       6.99889821       6.37158089      -0.00643232      -0.02623643       0.05921407
Ar       3.47583826       9.25729161       5.48262878       0.00989340       0.04309399      -0.03967868
Ar      16.07485642      13.54478363       6.44192931      -0.02537641       0.05982298      -0.08339050
Ar       4.35964027       7.53135717       8.84308491      -0.11249382      -0.07620067       0.07244739
Ar       2.74484010       7.83282973       2.42043610       0.08077084      -0.05699069      -0.01165881
Ar       5.21942038       1.85200883      12.03997070      -0.01777535      -0.02204907      -0.04714962
Ar       5.85541791       8.35290703       0.48097955      -0.12072348      -0.00391301       0.01667697
Ar      14.28725086       3.09637632       0.86841093      -0.04200871       0.00564477       0.03745632
Ar      14.50069892       0.56215151      15.63037376      -0.02472656       0.06825796       0.05556026
Ar       4.78233793       5.99885471       5.65877621      -0.00239447      -0.08404001      -0.05491792
Ar      13.47208358      14.04852492       3.36211742      -0.00685519       0.08217103       0.05519953
Ar      10.37962626       3.62874448       3.89839133       0.05708088      -0.03934917       0.05386818
Ar       8.76273868      10.39650760       8.01979646      -0.00300481       0.05788412       0.03663905
Ar       5.96962860       4.60863508       9.93110424       0.03226156      -0.09575047       0.02248226
Ar       9.49317544       6.94131344       9.46315217      -0.01722502      -0.05766050      -0.00952157
Ar       7.61565620       5.09460845      14.11716838      -0.08783484       0.01040699       0.01537774
Ar       2.95225318       2.65950087      14.85645986       0.03862783      -0.01314331      -0.01002180
Ar       7.95669936      16.02081290       1.40738429       0.00631016       0.01837922      -0.03414458
Ar       9.34182377       8.17193818       2.27713152      -0.03661559      -0.04939802      -0.05609201
Ar      13.69130817      15.00240046       9.29086122      -0.01679738       0.01427921      -0.01855089
Ar       9.91267681      14.01277960      12.42981965      -0.08653716      -0.01408813      -0.00129269
Ar       2.82744927       0.57273007       5.66062656      -0.02233509       0.04754642       0.06257452
Ar      11.31905710       0.43037132       2.04053469      -0.02066572       0.01415871      -0.06173184
Ar       6.19131015      11.47312242       5.82710322      -0.00380194       0.00302744      -0.01454014
Ar      13.82230482       6.76444601      11.55727087       0.08187944      -0.04319246      -0.01707502
Ar       1.42309511       9.31325859      12.41861695       0.16195897      -0.01033862       0.05408548
Ar       8.83854199       8.51002040      15.59352912      -0.03360353       0.08646862       0.03144076
Ar       3.53451420       5.42306251      12.18137974      -0.02210162      -0.04795587      -0.02736466
Ar       9.72657010       0.77537888      16.23666018      -0.05823921      -0.09781343       0.06498718
Ar      12.60137059       1.40088604       9.71943207       0.07517413       0.03818374       0.00377920
Ar      17.03769523      15.92344919      10.12305072       0.00513151       0.04037021      -0.10899283
Ar       4.11793688      16.64711024       2.32201640       0.00104550       0.04398488      -0.02201212
Ar       2.50550254      13.53846070      11.37125456      -0.00442955       0.01142070      -0.04635302
Ar       5.91305425      12.57967938      13.70809541       0.02745992      -0.07843022       0.08605484
Ar      16.62569448       3.30378482       5.20612401       0.00072479      -0.06436503      -0.08540220
Ar      17.09468104      12.35921953       9.70214445      -0.02969075       0.02476324       0.06908126
Ar      16.24800751      15.38916086       0.77219792      -0.06676293       0.00871257      -0.09375513
Ar       8.56631745       9.98658475      11.92380942      -0.07149234       0.01634448       0.06709949
Ar       4.86764022       7.66559684      14.33445499      -0.02706057       0.00526232      -0.03293906
Ar      16.98347469      12.78805255      13.12086055       0.12177742      -0.00728690      -0.05616197
Ar       6.27784887      16.01159870       7.64962056      -0.02369800      -0.05842556      -0.03354770
Ar       5.20948862       9.85642746      11.32666167      -0.02238376      -0.01178899       0.06274865
Ar      15.73148653       7.48270863      15.18831707      -0.02603548       0.01601760       0.09910499
Ar       3.10858086      10.42666968      15.54442396      -0.09871323      -0.08535731       0.04270655
Ar      14.37208906      10.15262589      13.11019715       0.04078374       0.02533166      -0.07956412
Ar       5.23127957       2.70205066       3.28419975      -0.03129281      -0.09820597      -0.00756072
Ar       5.83847270       1.97010780       7.31883668       0.04009536       0.05126281      -0.04052599
Ar      17.33801156       9.95033448       0.67804833      -0.01117981       0.05522346      -0.00057646
Ar      15.11099927       2.36397826      11.90660920       0.01852401      -0.03468868       0.05846457
Ar       1.13606231       2.35929621      12.10172014       0.04465125       0.10776609       0.01345110
Ar      12.15945952      12.40529695       6.29864593       0.02523084      -0.02306486      -0.05151269
Ar      11.44598547      11.86472668      10.31004706       0.00550008      -0.02165334      -0.00652698
Ar      13.73327018       9.36794060       8.68673505       0.05692694      -0.03259474       0.03651865
Ar      15.84450451       0.24010237       6.88564518       0.05757237      -0.06350438      -0.02161286
Ar      13.40337266       4.94054974       4.03534291      -0.09665409      -0.02203324      -0.04260501
Ar       1.47159287       2.11078710       8.51576117      -0.07938957      -0.07582134      -0.08256972
Ar       9.85828680      14.46153447       8.37088452       0.00753174       0.04554309       0.05721933
Ar       1.57263694       3.90865476       2.75653543       0.08194986      -0.06776701      -0.01676518
Ar       8.54194370       0.63190973       4.74873099      -0.05848489       0.06300453       0.08852753
Ar       5.21644751      14.40248751      17.10821539       0.02788670      -0.02701235       0.02700099
Ar      13.06342754       8.60566486      17.29341604       0.02890322       0.12460678       0.02517750
Ar       4.45886475       4.90507999      17.22676354      -0.03538811      -0.08584080       0.10714590
Ar      12.06309642       5.12002943       8.06157787      -0.04729713      -0.04499734      -0.03945420
Ar      13.39525247      14.05509376      13.30175872      -0.04259676      -0.06364723       0.02660570
Ar      11.89315285      16.34353605       5.99205568      -0.00383387       0.00777084       0.00907257
Ar      11.51432613       5.21259788       1.04547782      -0.01085982       0.05620789      -0.05881416
Ar       0.42487268       7.46232981       9.26274967       0.04510070       0.03951730      -0.04011340
Ar       7.26515946      11.70609251       2.35670525       0.03553944       0.02358039      -0.11552919
Ar      12.10969975      14.91644665      16.76628086      -0.00424952      -0.01082959       0.06374907
Ar       1.80571880      13.63580775      16.57282198       0.06030161      -0.03526502       0.02272697
Ar       6.61216700      14.86927483       4.57065869       0.00348215       0.01260872       0.01286187
Ar      14.38687793      11.94735923      16.05887138       0.01977268      -0.01352331      -0.04956570
Ar      11.03167969       7.00450101      13.36217732      -0.01544008       0.02379700       0.05784152
Ar       9.47480701       1.58445657       8.21697394       0.12514907       0.00089253      -0.04870642
Ar      16.45497008       6.74641293       1.87446840       0.07931029       0.10058861       0.06892760
Ar       7.53944060       8.28257134       5.32740907      -0.00517934      -0.10053907      -0.09734869
Ar       8.35049303      12.53041644      16.42662961      -0.07069361       0.09264724       0.02948924
Ar      17.31335192       5.54573158      12.48526206       0.01569967       0.03596506      -0.01823334
Ar       0.68418619      15.67245197       3.99022370      -0.05746713       0.14773581      -0.08208859
Ar       7.92568777       4.46270825       1.43653264       0.00588922      -0.00014870      -0.03790585
Ar       6.24923817       1.22967960      17.25561177       0.10684958      -0.00476481       0.08490492
Ar       8.43551864       5.07303741       6.49601299      -0.03050492       0.04687597      -0.01805293
Ar       9.76320526      13.84911454       4.08975473      -0.02962589       0.09323857      -0.10510077
Ar       1.85037460       7.41098071      15.86744679      -0.00288898       0.02433018       0.02016804
Ar       2.28562033      13.72143023       6.92344028      -0.11864232       0.03780282      -0.08090704
Ar       0.25878036       4.41843359      16.46890928      -0.04063734      -0.00740149       0.09940557
Ar       0.96764706       6.75297574       5.64047185      -0.01572051       0.04992616      -0.03056678
Ar       6.24037098      13.62262994      10.00232161       0.06192614       0.09206189      -0.05560871
Ar      10.91215346      11.37276213       1.05174251       0.02775090      -0.07993911       0.12445129
Ar       3.40948529      11.53625646       1.99446263       0.07009020       0.06230717      -0.08455335
Ar      14.90792622       0.46917503       3.38033988       0.06318500      -0.05473218       0.05179127
Ar      17.20615967      16.56308585      13.77127862      -0.00000864       0.04842758       0.00371330
Ar       7.58802479      15.86208847      14.77584338       0.04816041      -0.07847142       0.04983315
Ar      13.31687585       4.53481082      15.11689745       0.06378839      -0.02009064      -0.04522493
Ar       8.81214905       1.65434853      12.25625335      -0.02942838      -0.02393723       0.01110512
Ar      12.05697598      17.24583187      13.24443537       0.05469560      -0.05436591       0.07986911
Ar      16.88503593      10.00014192       6.71121477       0.08366594       0.02840438      -0.03619594
Ar      14.71536538       9.44442382       3.62324933      -0.02420683      -0.05107754      -0.01440604
Ar      11.17275092       8.40127438       5.66251856       0.01837195       0.00156753       0.03312691
