108
Lattice="17.35 0.0 0.0 0.0 17.35 0.0 0.0 0.0 17.35" Properties=species:S:1:pos:R:3:momenta:R:3 pbc="T T T"
Ar      16.16136805       9.05172590       3.67974176      -0.00136441       0.01828808      -0.09513571
Ar       5.02908854       2.68877226       9.71925187      -0.04043651      -0.05331529       0.07190110
Ar       7.18417785       1.45467299       7.09199170       0.06866744      -0.00605431      -0.06021864
Ar       0.15757956       2.73331400       3.83996341      -0.01300836       0.00121368      -0.01888659
Ar       7.64011412       2.56421104      14.02933514      -0.03199510      -0.00175760      -0.01551735
Ar       7.97733139      11.05854107      13.93548595       0.06296440       0.00760887       0.02177511
Ar      15.01255567       0.84018917       0.99355852      -0.06540696       0.00184709      -0.03700173
Ar      13.13859273       1.61084223       7.59419848      -0.01527447      -0.04596704       0.03398247
Ar       7.25406427       8.68272034       8.32661127      -0.06823490      -0.03962685      -0.03415089
Ar       0.24945838       5.85195216       5.62535812      -0.06607036      -0.08046656      -0.09470346
Ar       1.31495362      12.86702486       9.54894922      -0.08844335       0.01871551       0.00691242
Ar      15.74206634      15.58863583       8.06328533      -0.04050738      -0.10068847       0.00676932
Ar       4.99013251       8.10679256       5.54729596      -0.05459826       0.03150647       0.00819810
Ar       1.25976597       9.74476279       6.25525590      -0.01838986       0.02567690       0.03779358
Ar       5.05770734       6.15451430      11.31667713       0.02658677       0.03056595      -0.04131246
Ar       9.29624516       5.87740379       1.36904736      -0.02024213       0.08393318       0.03920785
Ar      15.98688500      16.40065476       4.66100020       0.00590861      -0.04046636      -0.03288639
Ar      12.84160518       8.00160551       4.69901891      -0.05722159       0.03976160      -0.02392785
Ar       6.63555714       5.30655436       7.24840671       0.08024227       0.05592185      -0.01328733
Ar      13.91652993      11.89048256       3.07982375       0.04129904       0.05451098       0.07911080
Ar      10.93665316       0.51828762       5.19388640       0.07589180      -0.13206558       0.12710991
Ar       4.89198587      11.01078842      10.53761618      -0.00553048       0.07313126      -0.09174823
Ar       0.14960086      13.02300806      14.14934111       0.04823760       0.00543863       0.02101942
Ar       9.47825048       6.78332188       5.19272384      -0.10668700       0.02563336       0.02072773
Ar      10.85870683       4.86159390      15.71589650       0.04873006       0.09513486      -0.03301142
Ar       4.13478728       3.94921183      14.23195289      -0.03067555       0.12417341       0.03392408
Ar       8.78184722       1.55887591      17.12394896       0.05299775      -0.10020926      -0.02084564
Ar       8.46537193      10.51412416       1.00358099       0.07112008      -0.02681341      -0.01788555
Ar      12.38124482      14.62398560       9.09886843       0.01334375      -0.05244426      -0.02124382
Ar       8.18240244      14.08821151      11.97935828      -0.02655699       0.04712721      -0.09445892
Ar       7.02688812       6.39501744      14.48432220       0.10172953       0.03732095      -0.12940809
Ar      14.54208249      14.84383117      15.08824888      -0.09041249      -0.02573321       0.02634125
Ar       7.21753325      12.08680744       6.92685966      -0.00563513      -0.03916908      -0.07099784
Ar      12.61145124       4.97296761       9.85785711      -0.03302625       0.01656433       0.03359055
Ar      13.95694711       6.77974953      15.88370188      -0.04428316      -0.03782210      -0.00283581
Ar       9.64057832       8.32081638      16.22489869       0.02497045       0.06062268       0.03018230
Ar      17.25349998       6.24062562      15.35910806      -0.06518937      -0.06156778       0.00766401
Ar      11.51502312       2.80151713      12.65537211       0.03230296      -0.03902060       0.01593981
Ar      10.35906468       0.68731802       9.65235457       0.04750126       0.03873045       0.05076289
Ar       2.15676440      17.13566077       9.33414839       0.09633238       0.03408352      -0.00141079
Ar       1.47920213       4.71242743       0.87415696      -0.00094602       0.05609103      -0.01675177
Ar       6.71435509      15.81172791       0.79765869      -0.07091934      -0.06041465       0.04823435
Ar       5.39522557      14.09061581       9.24553907      -0.04159524      -0.12239658      -0.04510957
Ar       2.11020319       7.71676542       2.73166292       0.07661881      -0.02643305      -0.05382012
Ar      15.53018249       8.43909895       8.44263204       0.02562453      -0.08717737      -0.00018024
Ar      13.78351077      15.14364704       1.72332762      -0.01219560      -0.02890741       0.00827458
Ar       3.40444462       9.03104365      13.56026468      -0.02594440      -0.00833248       0.06474988
Ar       4.28886265       6.49570149      16.81069922      -0.09088573      -0.05107672      -0.01975992
Ar       2.54484486      14.73865547      12.55507330       0.01875195       0.05211193      -0.03546177
Ar       6.91571683      17.21728391      10.05195836      -0.00632468      -0.04198092      -0.00768858
Ar       2.09826691       9.28989607       9.84825113       0.06031825       0.04397327       0.02116767
Ar       3.99824278       0.49637056      12.79975718       0.07024987       0.02444769       0.05349096
Ar       4.29454065       4.63430066       3.76041439      -0.05729258       0.02669983      -0.09130023
Ar      13.12056832       8.20220597      11.66105447       0.10561862      -0.07964718      -0.03925415
Ar       3.55873540      14.76914606       2.99724446       0.01526256       0.02687615       0.03253424
Ar       2.61893008       5.95344803       8.46398845       0.04426262      -0.03963426       0.09117750
Ar       1.26335726       9.25624860      17.22793343      -0.10480229       0.05645764       0.00689726
Ar      16.74825020      15.64528432      11.55378356       0.03885550       0.00095446      -0.00772162
Ar       0.23216390       2.57642970      15.95724107      -0.02548262       0.03849668      -0.01960203
Ar      10.62459202      12.06054120       7.62708730      -0.00558018       0.08394155       0.00047251
Ar      15.00211000      11.67549252      10.34960746      -0.01532833       0.04028164      -0.04066973
Ar       3.52040922       2.80329131       6.51278462      -0.12917189      -0.01432753       0.00063319
Ar       1.14541881       0.08833275       1.49423303      -0.05778173      -0.05052425       0.09948905
Ar      14.20773924       1.94925709       4.34649057       0.06132184       0.06635929      -0.01263151
Ar       1.53953633       5.93258495      11.92719024      -0.02439668      -0.02253828      -0.05353090
Ar       8.68641401      15.30133607       7.03420102       0.05057271      -0.00388347      -0.00252285
Ar       4.57360361       0.66171936       3.26095186      -0.06672345       0.04417379       0.09134412
Ar       8.11340551       2.86859383       4.01241328      -0.03559043      -0.05973414      -0.00987528
Ar       3.26380694      13.76361213      17.09859769       0.05799917       0.01642260      -0.06206894
Ar      15.52158289      10.84804580      17.19175179       0.01941571       0.01191295       0.10053219
Ar       6.00450153       3.40583387       0.66428824       0.05798607      -0.07899863       0.04138421
Ar      10.08603589       3.74954202       6.96290117      -0.12632331       0.01000940      -0.01521253
Ar      12.24774829      10.17808783      14.63990778       0.00205100      -0.01263385       0.08493805
Ar      12.19468205      14.41488337       5.51240684       0.03980628      -0.06205852       0.00806712
Ar      11.58275879       2.58675242       1.84136529      -0.11130487       0.06892516       0.07774201
Ar      13.05736483      16.52471511      12.25209445       0.11265341       0.10724640       0.04031403
Ar       6.64982500      12.58259926       3.34364969       0.02976173       0.04803732      -0.02643335
Ar       4.86318321      12.48097963      14.11409281      -0.00055751      -0.01834132       0.05521290
Ar       0.47704996      16.57540675      14.62283854       0.09461536      -0.03783574      -0.03509692
Ar      10.05187530      15.24137538       2.50266623       0.03065630       0.00563890      -0.08876680
Ar      17.26144076      14.09007912       1.29101088       0.00877892      -0.01399864      -0.02900217
Ar      16.64867489       5.14338363       8.94350695      -0.01502292       0.04525450      -0.00222514
Ar      10.25238673      10.41317398      10.91201232      -0.08133634      -0.05526094      -0.05865562
Ar      15.93678853       9.37025466      13.45198401      -0.07114889      -0.07128765       0.01281457
Ar      10.23064996      10.68424677       4.51253800       0.03481851       0.05738541       0.10674525
Ar       8.79395192      13.54038466      16.04392808       0.02886058      -0.05569872       0.02922832
Ar      14.96890218       5.59572442      12.79717736       0.04434785       0.01876343       0.03568489
Ar      17.18925990      12.75219449       4.57433875      -0.05833482       0.03607051       0.04596089
Ar       6.21194383       7.14169896       2.34594362      -0.01249486       0.09605509       0.00927038
Ar       6.23947909      15.51659297      14.49557988       0.03130320       0.03171322      -0.03235482
Ar       8.43014799       4.34592930      10.54524082      -0.07035452       0.01839836      -0.02707701
Ar      12.20984742      12.86852108      16.88151022       0.03155816      -0.00677078       0.00508118
Ar       5.31822872      16.02094907       6.37856490      -0.04918840      -0.00584959      -0.03584833
Ar       1.91331583      16.36179751       5.76091617      -0.02955134       0.09453059       0.00758434
Ar      14.37045513       1.46766041      14.45102223      -0.01200597       0.02006547       0.00482543
Ar      13.71126059       4.84213895       6.29226862      -0.04633826       0.02343672       0.01102142
Ar       3.08349288      12.89198466       6.34827112       0.02250892       0.05337925       0.02586123
Ar       5.74951107       9.32840701      15.96885086      -0.03268625       0.08443222      -0.02070580
Ar       3.34005565      11.11170320       3.27408551      -0.02567596      -0.06757338       0.00263024
Ar       4.20502329       0.48748803      16.68245279       0.01157630      -0.01677747       0.00657132
Ar      15.14243167       1.69727080      10.78483003       0.03969901      -0.00845096      -0.02490172
Ar      11.72664593      17.17798251      17.09243388       0.05814650      -0.04888405      -0.01512527
Ar       9.98120774       7.07218480      11.99240323       0.08842097      -0.02763269       0.04428300
Ar      10.09868727      16.87648113      13.81784696      -0.08796090       0.02814026      -0.00627751
Ar      11.20458719      13.21464018      13.39622266       0.06735228      -0.10056847       0.04080658
Ar      14.16878890      11.85380080       7.03207532       0.08180843      -0.03020667      -0.08112922
Ar      15.20295250       5.84236174       2.55613734       0.05473182      -0.00270295      -0.00365519
Ar      12.23196001       8.79313817       1.11646821       0.07529649      -0.06246643      -0.01664644
