108
Lattice="17.35 0.0 0.0 0.0 17.35 0.0 0.0 0.0 17.35" Properties=species:S:1:pos:R:3:momenta:R:3 pbc="T T T"
Ar       0.89595653      10.90610476       3.64336846      -0.06370303      -0.00356005       0.06797104
Ar       2.00430057       2.91834305       9.91957108      -0.11988708      -0.01620405       0.12075161
Ar       7.85742812      17.33697236       6.02182780      -0.00059425       0.00414517       0.00960409
Ar      16.69031818       1.47671749       8.03067689       0.03590319      -0.09715148      -0.07704189
Ar       9.44321544       4.03846010      10.68430010      -0.05933650       0.01773616      -0.01338098
Ar       6.48107555      10.16796794      13.70307446      -0.02958802       0.00567764      -0.08211266
Ar      14.23785565       3.09870952       0.64435670      -0.02850526      -0.03620075       0.03633409
Ar      13.58628042       3.03647590       7.46984727       0.07175416      -0.01110402      -0.04033157
Ar       9.30705145       7.56387714       7.51648108      -0.01281021      -0.05732426       0.00815855
Ar      13.57559860       7.69643476       2.92732679      -0.00757619       0.03620480      -0.04164964
Ar       0.25689044      13.29617713      10.98860512       0.11751416       0.06338526      -0.07264344
Ar      15.47191021      16.46132828      10.58633145       0.10716173       0.02175826      -0.10026098
Ar       5.89413001       8.50563857       6.65598220      -0.02280540      -0.00416936      -0.05247380
Ar       2.29746596       8.19229329       6.00899588       0.00182055       0.07828700       0.02421472
Ar       5.39313006       6.97112809      12.06494281      -0.10051975       0.02770259      -0.11466043
Ar       9.32487873       5.11161168       0.97234220      -0.04096889      -0.02901583      -0.02263306
Ar       0.45325199      15.08722356       3.66475610      -0.00179434       0.12321679      -0.04156922
Ar       9.98630293       7.83895964       3.81462531       0.07468891      -0.05833817      -0.06538142
Ar       6.55020620       5.59574969       8.56607687       0.10990829      -0.13931706       0.01674418
Ar      14.09737792      11.15806420       2.57377416      -0.01767570       0.02161559       0.07043199
Ar      11.37585227       0.90146184       5.30567979       0.06828065      -0.00277053       0.15333080
Ar       5.01556525      11.32811530       8.94586047      -0.02554115      -0.06862516      -0.00878987
Ar       0.87691329      13.72249828      14.42480853       0.07178282      -0.07338043       0.03602763
Ar       7.43417038       5.52776510       4.42926486       0.05234578      -0.00433738       0.01048922
Ar       9.91232517       3.59181082      15.18993402       0.01694869      -0.10589548       0.01191989
Ar       6.39970064       3.55935148      13.32423187      -0.02520091      -0.06661201       0.02275923
Ar       7.19060165       0.52005764       0.06426374      -0.02758183       0.11852616      -0.09005925
Ar       8.13047546      11.67913441      16.59982406      -0.07604200      -0.07898060      -0.00441703
Ar      12.49554520      13.05283410       8.83369580       0.05779843       0.01603698       0.02682601
Ar       9.21968077      14.35043606       9.77757700      -0.05571618       0.01148651      -0.03431442
Ar       6.06302556       4.78427926      17.18122376       0.03419657      -0.10546119       0.01345064
Ar      14.67198163      14.19306474      14.62001454       0.01956590       0.00252977       0.08594074
Ar       9.97532074      11.31794844       6.60641574      -0.02555867      -0.10238541       0.07790296
Ar      12.48343903       6.53003745       6.56074781       0.09104136       0.08582377       0.06628600
Ar      11.65492225       6.69942201      13.57625490      -0.02538011       0.01990108       0.04914984
Ar       7.77856287       6.66340950      14.54153719      -0.13774826      -0.05167642      -0.00330925
Ar       0.23093251       7.45859052       2.47945910       0.00044976       0.03686146       0.02673076
Ar      12.32785096       2.54304058      12.26761968       0.03526592       0.02548579      -0.02862316
Ar      10.57341990       0.65306510       9.02258006       0.02553461       0.03667851      -0.03533969
Ar       1.99454372      16.61428013      11.32937823       0.00069026      -0.09269953      -0.03963978
Ar      16.07357293       4.42441570       4.16075163       0.11689633       0.07361951       0.00794657
Ar       9.24316286      16.13555975       2.67021688      -0.05840400       0.00266305      -0.06095643
Ar       4.32377519      13.29769596      11.71430779       0.11438992      -0.01108784      -0.03607606
Ar       4.45785087       7.13636342       3.31903338      -0.01404344       0.02466661      -0.06036231
Ar      15.95929830       7.83329218       5.79782629      -0.04969927      -0.09431492      -0.01416223
Ar      16.12880692      16.37266026       0.65154398      -0.12582366      -0.02310573      -0.05740245
Ar       3.33066157      10.01576713      12.63737336       0.03713328       0.06055347       0.01601283
Ar       2.38639583       4.62377438       1.33416516      -0.00965891      -0.08974758       0.03397199
Ar       3.52381387      16.37804503      14.55446842      -0.08265193      -0.03852624       0.03840207
Ar       6.06075616       2.21022351       8.94714693       0.05373592      -0.09087098       0.01840085
Ar      15.19682628       7.84141126       9.18356564       0.03210933      -0.02664212       0.08454780
Ar       2.80794200       2.28348613      13.63142432       0.02722218      -0.03736380       0.00369559
Ar       3.66820215       4.80472922       6.47776153       0.03027138       0.03312642      -0.04070807
Ar      12.16294665       9.29429047       9.29637940      -0.03470529       0.00234420      -0.00279339
Ar       4.04087237      12.47388083       2.74797523       0.07311766       0.10189322      -0.01818111
Ar       2.81337707       6.74579224       9.68984729      -0.01512169       0.01653266       0.00629531
Ar       3.41744360       9.87071611       0.04834581       0.03860838      -0.02729648       0.04549986
Ar      17.12829510       0.36226280      14.21013234       0.00489928      -0.09269749      -0.09343305
Ar      16.95557289       3.86534273      15.77668397      -0.04102971      -0.07525961      -0.05666492
Ar      13.58139968      10.35984528       5.93537684       0.02106739       0.09764680      -0.02282399
Ar      14.16486502      12.50604984      11.85304640       0.02330840      -0.02849333      -0.00387377
Ar       2.75727846       0.89214664       6.90000226      -0.02030601       0.06160808      -0.05113243
Ar       1.64345521       1.21811759       3.30535887       0.10571312       0.01787957       0.03340749
Ar      15.01688441       0.72705270       3.85136270       0.04697508       0.05800165       0.01183702
Ar       0.96031726       5.40658519      12.48570380       0.00947743      -0.02153365       0.05111612
Ar      10.72977365      14.86140864       6.18337329       0.00367009       0.03470047       0.02966040
Ar       4.58500898      16.69405379       3.64815068      -0.01342938      -0.02388610       0.01311432
Ar       8.38669954       2.25870459       3.06299299      -0.01720498       0.04662874       0.02612057
Ar       6.17936017      14.71190911       0.70995108      -0.01229063      -0.00440728      -0.04316322
Ar      15.86009179      10.64969966      15.56934823      -0.04119986      -0.08843621       0.11389837
Ar       4.79377892       3.01534597       3.44468583       0.02370946       0.10299950       0.08340202
Ar       9.27977760       3.78809668       6.91635224      -0.01594238       0.10274987      -0.03556756
Ar      10.88362854      10.02303384      13.35987822      -0.00983722      -0.01460824       0.00405173
Ar      13.89736778      15.74680564       7.46459310      -0.03940978      -0.05721936      -0.08777373
Ar      11.95641916       0.74634857       1.32416413      -0.00970930      -0.01528264      -0.10445603
Ar      12.14585418      16.11485595      11.40719829      -0.05590547      -0.01431455       0.07068668
Ar       7.10879125      14.14661646       5.00953359       0.02182867       0.07520142       0.00203473
Ar       4.35465396      12.88288910      15.85346694      -0.06838039       0.08687298      -0.02512646
Ar       2.52937074      16.08379884       0.65157993      -0.09326314      -0.00306991       0.03237197
Ar      12.50587194      14.87190656       2.56735738      -0.04889170       0.03499695      -0.04919179
Ar       0.50062978      12.98875632       0.76306869      -0.03474474       0.02439019       0.00635197
Ar       0.23883621       5.26430407       7.51018614      -0.12163452       0.06275110       0.01934085
Ar       8.68279580      11.13158350      10.52796139      -0.02361815      -0.03699313       0.07658712
Ar      17.01965510       9.12973456      12.04540136      -0.04148861      -0.01312721      -0.01486485
Ar       9.39937235      11.76814443       2.84252465      -0.00886280      -0.02676133      -0.01563637
Ar       7.11864123      15.41412209      14.61347927      -0.06482758      -0.02027054       0.00248155
Ar      15.03291041       6.41120913      12.91873277       0.00725978      -0.05147513      -0.09917069
Ar       3.54575151      12.62749222       5.89096479       0.04866137      -0.04200035       0.05886509
Ar       7.17216915       8.14197842       0.74053489      -0.01860032       0.04777226      -0.03008384
Ar       5.77041394      17.08963865      11.83054608       0.03106604       0.01209447       0.05315802
Ar      12.71555529       5.69069095       9.99624657      -0.04279463       0.04213549       0.05397599
Ar      11.90350901      12.51340382      16.75175517      -0.00744611       0.04055003      -0.02527424
Ar       4.35405778      15.00778251       8.49848009       0.11350699       0.00206641      -0.04372795
Ar       0.79419480      15.70565536       8.19122091      -0.04678876      -0.00786054       0.04821828
Ar      13.44906013       0.25918635      15.73825916      -0.05324382      -0.00116253       0.02530592
Ar      12.30083749       4.44593298       3.70203610       0.08241585       0.02185451      -0.09821158
Ar       0.92117922       9.82575135       8.65492924       0.10426056       0.01119312       0.09710155
Ar       3.17741312       7.00365067      15.10053945       0.02910873      -0.05379731      -0.00236170
Ar       6.53603179      10.10605090       3.48082344      -0.11460142       0.00242633       0.02361691
Ar       3.94289383       1.71581030      16.91245561      -0.05720455      -0.02515802      -0.05195462
Ar      15.72511584       2.62895533      11.45155910       0.04114135       0.06939342      -0.00724576
Ar      10.11206505      15.51097768      16.66005380       0.11324743      -0.01094444       0.08956661
Ar       9.14788460       7.36363417      11.03125302       0.01864188       0.02918867       0.01752959
Ar       9.45180019       0.58924635      13.30102473      -0.07237176       0.09646157       0.01161855
Ar       9.92840067      13.89446786      13.21083526      -0.01266470      -0.00023283      -0.08239718
Ar      16.35090748      12.62079819       6.16505845       0.05597763       0.08368105       0.04477635
Ar      14.10179730       6.88712265      16.63621189      -0.00959188      -0.05385475      -0.00398200
Ar      11.36823298       9.17664471      17.32588142       0.08985359       0.09330825       0.01739872
