108
Lattice="17.35 0.0 0.0 0.0 17.35 0.0 0.0 0.0 17.35" Properties=species:S:1:pos:R:3:momenta:R:3 pbc="T T T"
Ar       0.20351840      11.94794068       3.61481058       0.05697113       0.05748622      -0.06575397
Ar       3.86167410      16.84301739       9.49189369      -0.06472712       0.03289764      -0.05738499
Ar       2.49145939      10.77933001       8.96778702       0.02132574       0.08146644       0.04418788
Ar      13.01631675       2.05925941       6.06403862       0.12052378      -0.01886927      -0.06764866
Ar       3.55748496      16.00770308      14.35606614      -0.04085948       0.00716760       0.04654560
Ar      11.08081316      11.25735553      14.33029374       0.05106017       0.02123975       0.00628587
Ar       1.31214105       0.92606987       0.17573252      -0.03509940      -0.06481632      -0.10651639
Ar      15.58180393       4.25738568       9.19422532       0.02749240      -0.09554202       0.00821077
Ar      11.29301874       4.27834317      11.56092813       0.04303791       0.01237784       0.01790317
Ar      14.89432047       6.80111999       6.65087372       0.02797375      -0.00848318       0.02608489
Ar       3.36509366       9.64942042       5.22908322      -0.03885515       0.04199003      -0.03748975
Ar      15.33937663      13.97662811       6.12970073      -0.10743659      -0.05432938       0.00385525
Ar       3.84967073       6.63304312       9.09778855      -0.01331948      -0.09226887      -0.04584740
Ar       2.87368473       7.17793219       2.41599538       0.03345141      -0.04859692       0.02949722
Ar       4.91949372       1.56325450      12.07855867      -0.02250181      -0.01991252       0.06073323
Ar       5.44619067       8.57414191       0.39844184      -0.04853415       0.04680864       0.01040707
Ar      14.19598259       3.11927274       1.43294932      -0.03301914       0.01418531       0.08790432
Ar      14.48018701       0.98986998      16.05906943       0.00361539       0.03457956       0.01416064
Ar       4.56011864       5.18591464       5.16552735      -0.06019721      -0.04454767      -0.05713806
Ar      13.58902597      14.55644383       3.26388529       0.02350261      -0.01060432      -0.11682384
Ar       9.97623452       3.32880738       3.88441441      -0.03755952       0.01197006      -0.05042125
Ar       8.83158443      10.78855028       8.38619458       0.00112605       0.04237618       0.04494297
Ar       6.83474710       4.19706061       9.96850477       0.15040944      -0.01891779       0.04747094
Ar       9.09695658       6.92970719       9.73130733      -0.05781020       0.04499937       0.06346145
Ar       7.10189834       4.93096336      14.19599663      -0.03498420      -0.07585807       0.00800759
Ar       3.52491660       2.42028757      15.23293368       0.07465032      -0.03836113       0.03232893
Ar       8.20170188      15.83736971       1.22197152       0.00169836       0.02590728      -0.10190800
Ar       9.14737793       7.87958925       1.69691092      -0.02659963       0.00105471      -0.03045137
Ar      13.45442275      14.99146019       9.12896082      -0.02169938      -0.01822610      -0.00959068
Ar       9.27529850      13.86719352      12.38079770       0.00169938      -0.04961861      -0.01377628
Ar       3.05505378       0.64816974       5.62612159       0.04442710      -0.02061272      -0.01928586
Ar      11.52905700       0.45272616       2.22843236       0.02218190      -0.01403592       0.06955941
Ar       6.28359747      11.81608914       5.82758895       0.03577156       0.04659701       0.02481904
Ar      14.04933238       6.65569635      11.44736004      -0.09031163       0.03609995       0.01833025
Ar       1.90063001       9.01177593      12.71789610      -0.07155274      -0.06559738       0.04201638
Ar       8.17831720       9.09907072      16.00508774      -0.04596207       0.11134704      -0.03265017
Ar       3.50105059       5.17733675      12.13921586       0.05940786      -0.00531181       0.07141490
Ar       9.91570531       0.66302055      16.14184080       0.06618162       0.04201694      -0.05583190
Ar      13.37508392       1.35632133       9.57087433       0.11666072      -0.02860952      -0.00854750
Ar       0.08673877      16.15207744       9.80932893       0.08942757      -0.02463469       0.05324769
Ar       4.00643780      16.58575546       2.19319344      -0.09403021       0.01218191      -0.07450994
Ar       3.17777864      13.56785428      10.98988110       0.09731761      -0.00070469      -0.03390534
Ar       5.81896248      12.08162193      14.12988153      -0.03073900      -0.03972793       0.04777248
Ar      16.45011830       3.10464466       4.89606910      -0.02383838       0.01734498      -0.01594420
Ar      16.39829698      12.25261868       9.51346106      -0.12293779      -0.00537449      -0.04150458
Ar      15.69445170      15.34836865       0.06077929      -0.06171238      -0.02802665      -0.07272783
Ar       8.45747621      10.07451489      12.34702228      -0.00818128      -0.00651564       0.01721988
Ar       5.11023514       7.84023093      14.27937497       0.01917939       0.04893558       0.01539711
Ar       0.14254512      12.69899548      13.67854837       0.04827478      -0.01980749       0.10352921
Ar       6.56579252      16.16199166       7.20110542       0.08426457      -0.01374095      -0.04578022
Ar       5.08446234      10.05959872      11.27104268       0.05810797       0.06036496      -0.11169184
Ar      15.54628865       7.52540067      15.65736546      -0.00265472      -0.01135598       0.01452324
Ar       3.02982639      10.62935195      15.79964194       0.04421709      -0.00137090      -0.00314807
Ar      14.66484071      10.19835545      12.25201309       0.05290315       0.00921569      -0.06370812
Ar       5.32991336       2.35702422       3.50266697       0.08397684      -0.01756401       0.02317532
Ar       5.86167320       2.57919924       6.93799842      -0.07324790       0.03169220      -0.01084666
Ar      17.31459355      10.39828389       0.31052961       0.01695770       0.02925762      -0.04518824
Ar      15.15858312       2.16359042      12.70943214       0.03663216      -0.04794614       0.08247635
Ar       1.44018234       2.29907177      11.68609146      -0.00590175      -0.09291107      -0.02486895
Ar      12.33868824      12.05412785       6.21395331       0.00926426      -0.05629642       0.00860968
Ar      11.73906623      11.59860515      10.33229207       0.03522456       0.00062310       0.03778408
Ar      14.14752683       9.37743982       9.08536689       0.07098430      -0.00108660      -0.01120065
Ar      15.94239581      17.22651850       6.63579732      -0.03766770       0.04915551      -0.06767356
Ar      13.56107923       5.61297131       3.63850724       0.01568498       0.14873064      -0.01899745
Ar       0.67559294       2.06972275       8.40934051      -0.08098289       0.05344402      -0.02978974
Ar       9.74066014      14.82444035       8.79480483      -0.02794501       0.04119450       0.05795159
Ar       2.06938509       3.91244729       2.99331451      -0.06691668      -0.03126143       0.13132180
Ar       8.01953907       0.56405548       4.98111833      -0.01698768      -0.07583292      -0.09550369
Ar       5.29671820      14.25160576      17.27730594       0.02332563       0.00388301      -0.02306954
Ar      13.13750328       9.12527795       0.21230996      -0.02821182       0.01366923       0.04479145
Ar       4.42416753       4.55755784       0.55347107       0.07080067       0.02228974       0.00721810
Ar      11.78009129       5.05881413       7.81323092      -0.03542922       0.03555128      -0.00831246
Ar      13.26218573      13.49095718      13.12422622       0.01468384      -0.01831926      -0.07947853
Ar      11.78498124      16.03218946       6.06024737      -0.02450226      -0.06428248       0.01921555
Ar      11.42977615       5.75603749       0.17543415       0.03757383       0.03361444      -0.15972877
Ar       0.35555678       7.55905629       9.16186324      -0.07941597      -0.01273021       0.01586235
Ar       7.31130822      11.57165038       2.19621701       0.00882621      -0.05301213       0.05127360
Ar      11.99183398      14.80966688      17.24304757      -0.02887799      -0.02222640       0.05664883
Ar       1.59003383      13.90722194      16.67493500      -0.09824627       0.11925534       0.03060483
Ar       6.13232499      14.68622795       3.90866398      -0.03882363      -0.08271778      -0.08928664
Ar      14.75758368      12.01290037      16.15009375       0.04554033       0.04828507       0.01453172
Ar      10.87181707       7.33645663      13.86692891      -0.01194077       0.05636019       0.07059961
Ar       9.91330006       1.70434169       8.02709292      -0.01107325       0.02256097       0.01948174
Ar      16.85310099       6.93680103       2.25205954      -0.04281028      -0.01959582      -0.01291219
Ar       7.18540210       8.08998331       4.66935035      -0.08323857       0.02382303      -0.06679874
Ar       8.86283841      12.75490988      16.41233904       0.17217383      -0.02394980       0.00829684
Ar       0.02453423       6.14566490      12.67119100       0.04570378       0.05720763       0.07292760
Ar       0.76225007      16.26354474       3.36139336       0.05731691       0.01307821      -0.08037391
Ar       7.89403561       4.58136743       1.14316286       0.00845393       0.04299335      -0.02859512
Ar       6.34202322       1.61370848       0.09316766      -0.03199970       0.01302321      -0.02816910
Ar       8.27783059       4.92383948       6.65611139       0.01169130      -0.01243589       0.03611572
Ar      10.24586606      14.20901415       3.50148916       0.09088838      -0.00273397       0.01163391
Ar       1.75199802       6.84395476      16.23926414       0.03977992      -0.07250364       0.04292148
Ar       1.76427911      14.02234893       6.44886754      -0.03959716       0.04214711      -0.04644601
Ar      17.04528968       4.00109244      17.18157147      -0.08217584      -0.05840648       0.06639743
Ar       0.98585890       6.74337982       5.35766169       0.02746975      -0.04345304       0.01601355
Ar       6.67789472      13.41296882      10.41298979       0.01861879      -0.08441503       0.06061436
Ar      11.02464643      11.22142135       2.18677745      -0.00306397       0.01230275       0.16422485
Ar       3.83350569      11.70040202       1.75035486      -0.00231433      -0.04085663       0.06213790
Ar      14.59304488       0.39354766       3.38984736      -0.08211697       0.05430980      -0.02918553
Ar      17.34414809      16.82790521      13.77582315       0.02539519       0.02104973       0.00822542
Ar       7.31264238      15.82490161      14.66318944      -0.12544435       0.10039368      -0.03933663
Ar      13.76252529       4.45678271      14.64151424       0.02719122       0.03748401      -0.02553101
Ar       8.58385092       1.17184004      12.46566262      -0.01065829      -0.06968252       0.03062061
Ar      12.01947675      17.10423156      13.47908351      -0.02200431      -0.01258614      -0.00849907
Ar      17.19214966      10.09783121       6.69006658      -0.03280263      -0.01353187       0.01038474
Ar      14.22259929       9.23974837       3.66077244      -0.07905436       0.00160140       0.03354870
Ar      11.40334148       8.34187252       5.96332314       0.02755511      -0.01487488       0.04435127
