108
Lattice="17.35 0.0 0.0 0.0 17.35 0.0 0.0 0.0 17.35" Properties=species:S:1:pos:R:3:momenta:R:3 pbc="T T T"
Ar       3.50109255       1.75651887       6.47225479       0.16081395       0.05967588      -0.05539194
Ar       6.30562490       7.44899370       4.10206698       0.02130561      -0.10186416       0.02580378
Ar       8.75263985      10.29544415       3.45624175       0.03882445       0.10902731       0.00259570
Ar      14.32119095       7.71456935       9.75180083      -0.07301677       0.03271681      -0.06184486
Ar       2.87748678       4.07371160       8.87427225       0.02650653      -0.05045157       0.02442874
Ar       3.05070139       4.59053353       4.02909125       0.01049926       0.01112697       0.02937382
Ar      14.10344528       6.30102754       0.23809903      -0.02695760       0.08881970       0.01866858
Ar      15.88447068       4.55849220       9.31062272       0.10534464      -0.00957290       0.05987549
Ar      10.80862127       4.98151583       4.64274527       0.02709339      -0.09822328       0.03585609
Ar      15.92768079      16.89203626      14.90415140       0.15483291       0.02346564      -0.04050305
Ar      12.63682913      11.36097000      10.50377640      -0.09033738      -0.05652323       0.02521765
Ar      17.12862463       2.88832270       5.05025203      -0.00771744       0.05208965      -0.08525096
Ar      14.34847945       4.57429423       3.11346805      -0.04076170      -0.04583996      -0.07256470
Ar       3.68680263       6.28251445       0.34137593      -0.05847789       0.09743730       0.06045297
Ar       5.96497945       4.06265671       2.40954782       0.06875155       0.10792837      -0.05501933
Ar       2.21936306       1.17093059       2.86951646       0.08989780      -0.00443246      -0.08507406
Ar       4.09896358      15.00578109       6.76802413       0.06409414       0.07001547      -0.05768813
Ar      11.00079536       1.96471846       0.34820905      -0.05595902      -0.00953387      -0.09077581
Ar       7.02134420       6.77694657       9.79879530       0.05999583      -0.10677200      -0.02364897
Ar       2.04394431      10.28517840       0.55092233      -0.10363983       0.04703778       0.12514189
Ar      13.76448544       7.20717422       6.09431775      -0.07706595       0.05553808       0.09673287
Ar       0.93352844       0.07765997       7.53747309       0.02006098       0.01963634      -0.04935998
Ar       5.08314792       1.74183569      12.69248783       0.07484500      -0.05688552       0.02472902
Ar       2.71379252       8.16737111       3.74099704      -0.05164204       0.02337648       0.08316035
Ar      12.03709825      15.43709331       5.10433261       0.04387418      -0.07871172      -0.06374639
Ar       6.87063199       3.91972180      15.99695003       0.05559664      -0.00795921       0.06189694
Ar       8.44796772       3.89431012      11.39421017       0.01105099      -0.02994835      -0.00301738
Ar      10.97665798       1.41714358      11.00193567      -0.05611460       0.01537849       0.01486452
Ar      12.70110776      14.80861922      11.87541549      -0.06174982       0.08153199       0.04313159
Ar       4.18755767      16.48848938       9.90598386       0.05522320       0.01406808      -0.00943131
Ar      10.72797170       5.39352873       1.04472983       0.06193617       0.06571624       0.00932669
Ar      13.74625052       3.05515500       6.75844647      -0.02954384      -0.04624116      -0.02022489
Ar       7.87617447       8.73717355       7.09523672       0.07471074      -0.00485151      -0.04419441
Ar      11.17283465       4.11861822      14.64110998      -0.06341739      -0.06855572      -0.06613344
Ar       2.04361996      15.92210318      16.49392038      -0.03712839      -0.04351759      -0.02425599
Ar       0.80014007       7.68513528       9.52792670       0.06062971       0.04055365       0.07016761
Ar      17.25044298       5.79543675      16.35951064      -0.05588254      -0.02297663       0.03522777
Ar       1.06304452       2.43123610      15.40169969      -0.07217667      -0.03222580      -0.06252062
Ar       6.67482459       4.54962455       6.41898860       0.01632378       0.00191134      -0.03000916
Ar       5.96342513       2.45289008       8.93654823      -0.02902912      -0.04238300       0.08172500
Ar       0.60199083       6.89042001       6.24325703      -0.13320323       0.00777140      -0.03624748
Ar      11.25420351       8.90781592       8.24733562       0.04416253      -0.05905803       0.11477511
Ar       0.62075054       2.22789780      11.44891708       0.01441271      -0.05166429       0.01982633
Ar       8.04724290      12.64502833      17.28912144      -0.04072608       0.01043248       0.02755213
Ar       6.19135319       6.98511756      13.25121706      -0.01729154       0.04554441      -0.15718570
Ar      16.98167900       6.22676526      12.85549333       0.08362548       0.02392681      -0.03719490
Ar       5.04777362       9.78898797      10.88980292      -0.01173272       0.05107608      -0.03188581
Ar       2.97856274       5.36399568      13.37381153      -0.10125451       0.04671266       0.04399814
Ar      16.35590189       9.57266085      16.16222505       0.00103805       0.01695717      -0.02708057
Ar       2.20782567      16.69556860      13.06485995       0.05885104       0.00573953       0.00778353
Ar      12.30485419       0.78870246      14.69931083       0.09197223       0.04776980      -0.00955926
Ar      14.77911554       3.79242034      14.04381570      -0.03954200       0.07660281      -0.00721710
Ar      12.67007692       1.40089043       3.86506378      -0.01391411       0.02308293       0.08853905
Ar       8.74410875      10.56779900      10.51028817      -0.01315181      -0.04530754      -0.01999178
Ar      16.95697972      10.77374433       4.52963814       0.08098104       0.08266453       0.07607307
Ar      15.92317985      10.62638411       7.92162064       0.01343871      -0.00456053       0.03523312
Ar       5.00706962      10.85027705       2.48341805       0.07653489      -0.02361495       0.06449331
Ar       4.03496653      12.63267697      16.41339006      -0.01960239      -0.02880133      -0.00272571
Ar      12.61300148      10.91051898       5.21415550       0.02919629       0.07661761       0.09050215
Ar       6.37191829      11.76465369       6.19764764       0.08196005      -0.06116101      -0.00388359
Ar      16.41957416      16.76541121       1.74549001       0.04858359       0.07227015       0.01194536
Ar       7.37753957      14.29137746       3.32624553      -0.02522148      -0.02052708      -0.00420244
Ar       7.64664840      16.06239093       0.21793750       0.06684658      -0.00914641      -0.10205938
Ar      17.01298453       7.58175315       2.27872752      -0.00600609      -0.03340957       0.07572021
Ar       2.47074254      10.65911594       6.31481456      -0.01941707      -0.13492651      -0.06405640
Ar      11.65277349      16.13433917       8.65587339       0.02269277       0.00901921      -0.06035914
Ar       4.11116529       1.71299176      16.98429726      -0.01316005      -0.05078141       0.03966220
Ar       9.13748524      14.01272670      11.42756871      -0.05779102      -0.00944946       0.01122756
Ar      15.29871817      13.52312771       3.14742982      -0.04480721      -0.01882013       0.03040778
Ar       8.82288990       7.96499385      16.78319396      -0.02345000      -0.06446409      -0.07345193
Ar       9.27328300       0.19301066       3.57611906      -0.12429519       0.01597368      -0.08112542
Ar       9.34097313       1.96001703       7.06460363       0.03478083       0.01004983      -0.04458178
Ar      10.36720077      12.46425318       7.85585036      -0.00267194      -0.08641707       0.05608358
Ar      17.12389198      14.65016163      10.76162391      -0.06083748       0.06288606       0.01953761
Ar       0.65464201      13.72987791       6.63400815      -0.05573255      -0.07574055       0.03648169
Ar       5.67938472      12.99863884       9.74710424      -0.00642806       0.05649385      -0.06258482
Ar      11.01233845      12.72247425       2.53540929       0.01171908       0.08433986       0.02886016
Ar      14.88741105       2.18211662       0.11036506      -0.00545028      -0.03446461       0.02590558
Ar      11.53469293       8.16933659       2.98841769      -0.10451566      -0.06563159       0.00350300
Ar       7.34323309      15.56526254       7.64042520      -0.08024546       0.04696888      -0.08645136
Ar       2.06449303      13.24376013       3.16533199      -0.18963660      -0.04513971       0.00215241
Ar      15.37720455      16.59748309       5.79018403       0.00609472       0.10797140       0.02663796
Ar       8.55094577       1.02922707      14.36813250       0.04969427      -0.08012543      -0.00545019
Ar      17.33156153      13.02647562       0.00869559       0.00649129      -0.01363639      -0.00445652
Ar      10.61725464       7.57791909      11.34639065       0.01285078       0.02035838       0.04875146
Ar       4.25370724       7.06157857       7.33854870      -0.07216630       0.03407118       0.00923684
Ar      13.93444667       7.41729722      14.13982221       0.00682964       0.05728653      -0.05467007
Ar       1.34774614      11.58144235      10.05902562      -0.05128529      -0.02993752      -0.02770272
Ar       2.14969025       8.61746926      13.97165180       0.06506235      -0.02719338       0.07602115
Ar       5.25339305      15.24083198      14.81639690       0.01789221       0.01656840      -0.04950418
Ar      12.76831499       4.61618599      11.19499299      -0.06584784      -0.03184246       0.09566241
Ar      11.06241030      10.56355824      17.29843496      -0.00897189      -0.02149033       0.00883933
Ar      13.95073411      14.19363605      16.68409553       0.01029212       0.11694136      -0.00688921
Ar      16.13002618      13.27200646      13.81554898       0.06680923       0.01252781      -0.04425111
Ar       2.57497370      13.23024466      13.03768449      -0.04301811       0.06390220      -0.03313651
Ar      14.51245192      13.90888770       8.24404158      -0.00490641       0.09132739       0.03649830
Ar       9.82610148      10.47101313      14.00332303       0.04071448      -0.00323776      -0.00607640
Ar       5.41758375       9.03060019      16.00733751      -0.02643317      -0.13188077       0.10984612
Ar      11.62712381      15.93926105       1.36603780       0.05392360      -0.03732713       0.05246505
Ar       4.55967626      15.98201087       2.17547357      -0.15379231      -0.11156804       0.01482283
Ar      14.59689236       0.86335055      11.30128134       0.01840863       0.02339215      -0.07019230
Ar      10.64433428      15.06147902      14.70545756      -0.00891073      -0.07470791      -0.05752968
Ar      10.07033394       5.24593685       8.52870329       0.05088265       0.08883103      -0.00900156
Ar       6.22420933      11.95122267      13.52463749       0.09846008      -0.04950447      -0.04660208
Ar       7.36749328      17.10910761      10.99830126       0.02692475       0.00257772       0.02469075
Ar      13.12422267      11.87399347      14.08957665      -0.02156368      -0.06464435       0.04335609
Ar      15.60329265       9.81593732      12.09054725      -0.00906020       0.00615459      -0.00821709
Ar      14.25325746      10.52345044       1.60507928       0.07232030      -0.01421003      -0.04928887
