108
Lattice="17.35 0.0 0.0 0.0 17.35 0.0 0.0 0.0 17.35" Properties=species:S:1:pos:R:3:momenta:R:3 pbc="T T T"
Ar       0.43354685      12.75144764       4.86250017       0.00850248      -0.01409826      -0.10151602
Ar       7.85766652      10.20754764       5.29464837      -0.01001129      -0.03839631      -0.02384728
Ar       5.83713344      12.08154496       1.45299743       0.03310745      -0.01852084      -0.07328701
Ar       0.44479824       6.33715892       9.44779223       0.05421507       0.04710950      -0.02835299
Ar       8.74561816       4.30028860      15.06997843      -0.05469974      -0.01488063       0.03646598
Ar       3.81285038       7.72975525      10.13811169       0.03525286      -0.01500212       0.05993161
Ar      16.07941326       3.79460992      12.51018668       0.03197520       0.08184017      -0.06019948
Ar      13.74037015       5.07946704       9.99718773      -0.06377397       0.00738949      -0.03370921
Ar       9.71143896       3.14738962       5.19897138      -0.02630471       0.02939119       0.08138569
Ar      14.32928128       4.04570887       6.67088585       0.05978728      -0.01563576       0.09390189
Ar       0.43329635      13.78807157       8.26253733      -0.01495499       0.00135517      -0.04290781
Ar      13.77595225       0.08426338       0.95097945       0.07840364      -0.01847035      -0.10822328
Ar      10.03905654       8.39081078       0.75942406      -0.06431570       0.01228326      -0.03258030
Ar       7.00861748       1.96686516       7.41920152      -0.01857189       0.04267390       0.01170909
Ar       6.80466815       5.96825852       9.06117885      -0.03829659       0.03457463      -0.01059362
Ar       4.24046647       3.04651650       1.27679855      -0.00482759      -0.01179963      -0.00158710
Ar       0.83072543       0.78847159       0.83456526      -0.02813830      -0.01671441       0.01645231
Ar      12.15932425       3.38177872       2.58031259       0.03283342      -0.09519602       0.03134573
Ar       6.18637886       6.23271939      12.49737635      -0.06603159      -0.02327280      -0.02171153
Ar       2.04769376       8.88726620       4.30486929       0.02580405      -0.05362453      -0.10567108
Ar      13.69387845       0.54036141       4.83323544      -0.00101388       0.02798594       0.00782682
Ar       5.71077362      16.06555702       6.82760978       0.00470410       0.02052578      -0.07071105
Ar       5.39484005       2.59633183      14.99918781      -0.04236728       0.03597125       0.02803333
Ar       4.91382760       7.86591421       6.93381177      -0.03871463      -0.10540314       0.00891447
Ar      10.92285838      16.86838345       2.95908883      -0.05382531       0.03123423      -0.08097279
Ar       6.26571771      16.18559044      13.77355907       0.10632325       0.04450658      -0.05876546
Ar       5.05699422       5.93810585      16.73572964       0.07005881       0.12155709      -0.01034207
Ar      11.15382928       1.95526816      15.76167480      -0.07969680       0.03903557      -0.01006054
Ar      12.68124573      11.29532186       8.32540638      -0.11156369       0.00598197       0.08446775
Ar       3.18594539      15.30779698      11.59126803      -0.07471742       0.05639532       0.01771254
Ar       4.95015264       8.50402389       2.65524218       0.04210316       0.06585457       0.02954728
Ar      15.59112600      14.86227096       3.39648820       0.02066534      -0.00695172       0.05573364
Ar       9.50133159       6.71312235       3.88754770      -0.03394810       0.07163669       0.02682972
Ar      13.18388713       6.77094307       3.56758688       0.05971567      -0.05975349       0.05185264
Ar      14.47972552       2.89674584      15.86775463       0.03105338      -0.00639500       0.01133466
Ar      16.75124196       7.31143199      14.71664604      -0.03846938      -0.04774610      -0.08168518
Ar       1.61413471       3.91299355       6.28102164       0.03258663      -0.07140897      -0.10079202
Ar       8.40765754       2.20222370      12.14355925       0.03415837      -0.07777157       0.02330186
Ar       5.00005207       1.09534186      11.17650699      -0.02651578       0.03128897       0.08179378
Ar       1.47862133       1.33081194      11.57415573      -0.02427030      -0.03074272       0.00689991
Ar      16.91703362       6.81661927       5.17142857       0.05275727      -0.04045254      -0.03638123
Ar      11.27997623       9.70214794       5.23039474      -0.12075871      -0.07762023      -0.04174771
Ar       2.36916104       0.60937293       8.20047894       0.00180682      -0.01575419       0.00075431
Ar       6.82342077       9.33710316      16.78437901       0.01417964       0.07820248       0.08408474
Ar      12.14716118       5.47926664      16.57669282       0.04724371       0.04999847      -0.08121502
Ar       0.98233576       4.26539980      16.39763856       0.03970008       0.03888408      -0.05244615
Ar       3.43245393       8.31115757      14.18059552      -0.02476503       0.06405650       0.05415237
Ar       1.54834193       5.32715190       2.59984561       0.00469442       0.07332433       0.05610068
Ar       4.45724949      13.16012298      14.75102659      -0.01768999       0.04331900       0.01058801
Ar       3.71787602       4.11299542       9.26898346      -0.00277363       0.04735601       0.04912900
Ar      12.54871623       1.67017279      11.82534138      -0.01067857       0.05313803      -0.07522677
Ar       2.17064889       5.25828097      12.43121489      -0.03098671      -0.04731348      -0.05938344
Ar       8.50699075       3.97958633       1.50746148       0.06834089       0.03296172      -0.05419796
Ar       7.00309924      10.39693428      12.85837842       0.03691379      -0.06721560      -0.01535671
Ar       2.63164105      11.03872057       1.54771564       0.03218392      -0.04576589       0.05567487
Ar       2.34927969      10.17866007       7.81760993       0.01473734       0.05590248       0.07208484
Ar       1.13114957      11.14065136      14.43146221       0.05397340       0.04952764      -0.01139238
Ar       3.04014110       0.15427459      14.59875521      -0.02013153       0.09301668       0.01685591
Ar      14.48494895      11.14996754       4.96934618      -0.04109203       0.01956535       0.06430184
Ar      10.85119918       6.46619394       7.28732709      -0.02493091      -0.03443481      -0.10063001
Ar      13.94993953      15.21646827      13.05064215       0.01561264       0.02490292      -0.01018245
Ar       3.92135747      17.14401120       3.97199266       0.06376232       0.06354950      -0.06619105
Ar       5.15972145       4.42309336       5.95236084       0.03266087       0.10188674       0.01109961
Ar      15.94794648       3.26642182       2.83912404      -0.01692188      -0.06293268      -0.00695166
Ar      16.31077591       9.99967606       8.41183173      -0.01249368      -0.04456512       0.02465710
Ar       5.39594169      11.71286414       8.72478456      -0.00269038      -0.06143799      -0.01082163
Ar       5.70382817      15.52630709       0.78731672       0.07817337      -0.07943284       0.04164559
Ar       9.18118208      12.16366056       8.84265504       0.04565346      -0.00040566       0.04402690
Ar      10.44809454      13.50068785       5.90179386      -0.02167234      -0.06609034       0.03063611
Ar      11.85141832      10.81845598      15.81132635      -0.10492886      -0.04374380       0.01289468
Ar       7.69594721      14.29528778       3.80348134      -0.04665143       0.04747594       0.03135452
Ar      10.44501308       2.25026237       9.08557696       0.01090822       0.01722324       0.01580029
Ar      14.05502772       7.71708317       7.03180810      -0.03541085      -0.02150645       0.00609933
Ar      14.28934811      14.26372541       7.68109709       0.03225600      -0.03321654       0.01064960
Ar       7.04132851       1.27282155       3.34138818       0.05468422      -0.02574727       0.08989753
Ar       7.48860913      15.68004812       9.86015711      -0.00652254      -0.00020167       0.09317533
Ar       9.44499994      11.80085924       1.92047239      -0.06647584      -0.11069851      -0.14429689
Ar      16.50258989       0.60231870      14.14881327       0.01168114       0.08475727      -0.06821473
Ar      16.23544422      11.57610368       1.23994678      -0.00755109       0.00722230      -0.02122243
Ar      16.97191365       0.04252208       6.01863965      -0.07623281      -0.04871434       0.01231794
Ar      15.96223062      15.03979288      17.20799603       0.03268501      -0.04939213      -0.01630525
Ar      16.43720783       2.45669369       9.17093045       0.06875337      -0.00039440       0.04277283
Ar      10.16869422      16.29311749      14.18703916      -0.02496950       0.01308250       0.00580749
Ar       0.65519295      14.72340148      14.15934681       0.08603287      -0.01738160       0.08580089
Ar      10.60693842       8.93500153      10.47831526      -0.04561058       0.00956943       0.08302886
Ar       3.54858505      11.24618528      11.66037995      -0.08729174       0.05597772      -0.08494330
Ar      13.96795615       8.56508839      13.15550728       0.04966952       0.05142282      -0.07872269
Ar       4.35025006      11.29787787       5.28232275       0.02618683       0.05847141       0.00109823
Ar       9.68923959       8.24765648      14.69893073       0.04567828       0.00205247      -0.03551126
Ar       8.03662819      13.71311972      16.17838685       0.07923759      -0.09966778      -0.00014799
Ar      11.55113563       4.81053498      13.26343151      -0.01977417      -0.00973773       0.07238274
Ar      13.56321029       8.46356451       0.15899578      -0.02998179      -0.08563751       0.00936254
Ar      16.64908832      16.35323322      10.45990822       0.04376369      -0.05153721      -0.03232839
Ar      13.57199167       0.57794286       8.07357675      -0.02801778      -0.05037716      -0.07863466
Ar       0.71068777       9.29508975      11.33502103       0.05011967      -0.06461851       0.04346651
Ar       9.62425313      17.15315689       6.58591870      -0.07227394       0.10193222       0.04401111
Ar      16.00563033      13.02580666      11.30446940       0.02730906      -0.01577913       0.02126637
Ar       2.43054907       7.59228032       0.30020326       0.07111008      -0.04196316      -0.01009383
Ar      12.20165610      14.60290966      16.37519315      -0.09479181      -0.06790432       0.07805741
Ar       2.33498401      14.98640387       0.62885455      -0.05182241       0.11439167       0.08236628
Ar      11.54120650      15.27573472       9.72862109       0.03198066      -0.01917667      -0.03545918
Ar       8.58570781       0.50151966      17.19969862      -0.01564154       0.09429426       0.03015403
Ar      10.02846737       5.17105752      10.58814701      -0.04650841       0.01122741      -0.03158336
Ar       8.67683820      13.56096769      12.40558345      -0.03109824      -0.04055000       0.11277700
Ar      12.19078214      12.32064675      12.31103939       0.07505610      -0.07934903      -0.07824586
Ar      12.44085436      13.33333748       2.56343937      -0.04424481      -0.01952980       0.05421267
Ar      15.19703824      12.41484786      14.71295751       0.05588212       0.09753423      -0.04889936
Ar      16.45539368       8.02363690       2.09900039      -0.01822413      -0.08278767       0.02426238
