108
Lattice="17.35 0.0 0.0 0.0 17.35 0.0 0.0 0.0 17.35" Properties=species:S:1:pos:R:3:momenta:R:3 pbc="T T T"
Ar       0.76150540      10.44088434       2.01483966      -0.04306524      -0.00841802      -0.00093939
Ar       1.50904012       1.50347230      10.73641582       0.04358755      -0.00064552       0.03904315
Ar       3.53632985      15.30269667       9.10290699      -0.04968945      -0.01175909       0.09687998
Ar      14.46480470       0.04963628       5.58724277       0.04623592       0.07788816       0.05808681
Ar       6.00412524       2.99331046      12.91366838       0.01458192      -0.02838826       0.04287642
Ar      11.61827546       7.19111771      13.46492184       0.12057466      -0.04343414      -0.09036443
Ar      13.17594882       4.34107595       1.27931966      -0.09307065       0.00663304       0.01611222
Ar      13.77276173       1.71483870       8.83011527       0.00794098      -0.07001001       0.01884238
Ar      10.73848202       8.38349326      10.13562443       0.04181534       0.05056908       0.03003721
Ar      15.30990828       5.11402854       4.82978280      -0.09345574       0.09281719       0.01385305
Ar       0.85439950      12.96434449       8.30744518       0.05651385      -0.05577062      -0.02614122
Ar      16.73224824      16.04463691       8.43631391      -0.05235990       0.00825280      -0.04327274
Ar       5.45567258       8.63214116       7.18921902      -0.06319209      -0.04775329       0.05912465
Ar       2.36320473       9.82437890       7.17560297       0.01116593       0.01583226       0.00519020
Ar       3.77976139       8.40087772      10.82968919       0.00823316      -0.03755959      -0.00691523
Ar       8.92156155       6.23616894       0.47349916       0.05692415       0.12612462       0.01728381
Ar      12.11049255       1.06616885       2.82576321       0.02792694       0.09337600       0.08068530
Ar      15.36308083      13.22401794       0.57442759      -0.07928940       0.10639047      -0.04492588
Ar       5.40712184       6.82498151       3.32448869      -0.10603671      -0.03286010      -0.00371523
Ar      11.89049045      14.27552208       1.07768437       0.04278143       0.01822374       0.01442580
Ar       9.94213109       0.56524062       5.44419295       0.09280584       0.06563597      -0.06257627
Ar       7.04219937      10.34115526      10.17065642       0.03068177      -0.05319355      -0.00095134
Ar       1.74112787       9.95922505      13.83655278       0.05850643      -0.04276861      -0.03829781
Ar       9.08238059       7.46084952       6.16991078       0.07835873       0.06861932      -0.00059738
Ar       9.94095667       2.54352903       0.07689845       0.01937223       0.10293741       0.02188075
Ar       6.19396588       3.63887966       0.70886738       0.06792337       0.07765270       0.03536624
Ar       7.75861324       0.81228340       3.01263758      -0.02397228      -0.04797080       0.00593777
Ar      12.02583759       7.86555001      16.72022026       0.00030076      -0.08486212      -0.07484577
Ar      13.11093987      15.26521696       9.10474364      -0.02087267      -0.00216663       0.07917849
Ar      11.13821318      11.69447872       9.07659579      -0.07726601      -0.09709844      -0.03162699
Ar       3.10874199       4.90279414      10.76808559      -0.00349819       0.11501418      -0.09568605
Ar      14.00024539      14.87603978      14.72197288      -0.06842873       0.01363175       0.01746041
Ar       9.01092208      11.32232847       6.22333185      -0.02277071       0.02271750      -0.03220649
Ar      12.28497306       4.74704075      10.83242343      -0.04376384      -0.01956224       0.09317330
Ar       1.24770984       7.32028005      16.20665023      -0.03385065       0.00272952      -0.04152580
Ar       8.59341242       5.25447983      14.19286035       0.02584708       0.02882016      -0.07187496
Ar       0.46500600       6.17141352      12.82167926       0.02751929      -0.02692203      -0.10325157
Ar       9.46356301       2.05743129      13.28520802       0.08677871      -0.02137361      -0.01372162
Ar       9.60518937       1.03412923       9.47007835       0.10285465      -0.09871828       0.03506753
Ar       1.96151551      15.99912163      12.81553990      -0.15901051       0.00796172       0.07936630
Ar       2.56387272       3.58415896       0.12591909      -0.01915264      -0.01159196       0.02923409
Ar       3.32611050       0.06593890      16.67605532       0.08643070      -0.04065468       0.02260090
Ar       7.68317490      13.73891514      10.94166053       0.05485893      -0.06621505      -0.10500859
Ar       1.88921837       5.29081221       2.81707750      -0.07856608      -0.09425196      -0.10922808
Ar       0.52459257      10.40775109      10.67426689       0.00391479      -0.00383100       0.05526275
Ar      14.62654793      15.98914854       2.47678853       0.04955290       0.01072232       0.06932633
Ar       5.53931097       9.98896367      13.82306410       0.02157902       0.00888096       0.05016267
Ar       3.94030602       5.95212649      14.12744654      -0.05592742       0.03151364      -0.01170907
Ar       4.03424970      14.11817441      15.40418722      -0.03458326      -0.01523317      -0.07683696
Ar       6.32673503       2.07266640       9.05186885      -0.07572189      -0.02625744      -0.01396441
Ar       3.14267827      12.37349616      11.74247132       0.07656305       0.09855880      -0.01583259
Ar       2.66318265       2.52137623      14.09080374       0.02509489      -0.03154203      -0.02904429
Ar       4.47157147       7.15266344      17.30935446       0.06829199       0.00961676       0.05749479
Ar      14.14832645       7.79677309      10.37012316      -0.04771505       0.04108097       0.04756120
Ar       3.54367539       0.06441883       3.08978535      -0.04533119       0.09511830      -0.07307754
Ar       3.05376767       6.27321494       6.24451558      -0.04732045       0.02686951       0.03803001
Ar       3.94148065      10.71137077      16.94318790       0.03419743       0.00323830       0.01231876
Ar      16.35469338      13.70571448      11.75370108      -0.03060955      -0.13869186      -0.05641286
Ar      16.48439577       3.38857560      15.50300069      -0.08431858      -0.03228851       0.10145973
Ar      12.12513141      10.06125927       5.69526042      -0.05523038       0.01501070       0.08774815
Ar      14.66410389      11.52955007       8.90177994      -0.01429096       0.07932594      -0.07583486
Ar      16.99088701       3.83447642       8.15250811       0.07405067       0.00169472      -0.01655302
Ar      17.26160427       2.10226333       4.95532004      -0.07772892      -0.02039170       0.04674909
Ar      12.19796180       3.40023592       5.78456362       0.00451305      -0.00992135       0.06858064
Ar       1.12939452       7.30100377       9.15986368       0.02543386       0.03214260      -0.12519208
Ar       8.35470111      14.87320876       7.38945579       0.03724117      -0.03767521      -0.06640424
Ar       3.51556424       2.82732238       7.21849717      -0.08564722       0.02708858      -0.07357841
Ar       6.07132908      17.27569922       6.01885239       0.04378910      -0.01429287      -0.00828103
Ar       5.15778554      13.93451872       1.77635595      -0.01340557       0.06148881       0.03534161
Ar      15.62913597      10.20813951      16.00742160       0.01683931      -0.09984256       0.03793158
Ar       4.72308723       3.46033879       3.67067362      -0.01636283      -0.07176273       0.06016681
Ar       9.59461324       4.75380027       8.50104753       0.02224645       0.02478005      -0.02418755
Ar      14.48091836      10.55416501      12.79957701      -0.03474490       0.01214517       0.00109951
Ar      11.76332212      13.69329249       5.80970598       0.00625647       0.00031580      -0.00801615
Ar       9.11482839       4.62894694       3.84675597      -0.04697231       0.02969947       0.01966004
Ar      15.14374928      17.15081729      11.90480208      -0.04835120       0.11559637       0.06491371
Ar       8.38876681      12.13748998       1.03869723      -0.06307182      -0.10072306      -0.01937722
Ar      10.32264018      11.89100549      12.69248889      -0.01237707       0.02356713       0.03995502
Ar       1.01915075      14.87073863       1.83286703      -0.03465102      -0.01326894       0.06448832
Ar       8.87107584      14.33781403       3.75688256       0.00697487      -0.00799416      -0.07011942
Ar       0.35107518      13.91187584      15.41803217       0.05890350       0.02083922      -0.10128030
Ar      12.69305988       6.75723758       6.85754310      -0.05090408       0.06929007      -0.04047558
Ar       6.88055470       6.50014215      10.13873832      -0.03079494       0.05125023       0.01661499
Ar      14.62543446       6.54263265      14.93620371      -0.01021491      -0.07946929      -0.00648206
Ar      12.33798887      10.49604976       1.88888899       0.03482138      -0.03701092      -0.04883236
Ar       7.71396281      14.42757236      15.03945077       0.00144457      -0.10062314       0.07666556
Ar      16.20072932       3.23497871      11.63296737       0.00952804      -0.02510430      -0.13523452
Ar      16.64338841      14.58172122       4.96855683       0.03574491      -0.08564647       0.02239446
Ar       8.17788176       9.19487435       3.12395185      -0.03004722       0.00329841       0.00189319
Ar       6.89718725       0.47316406      15.69643577       0.00606947      -0.02678412       0.04501170
Ar       6.41899888       4.73329651       6.87539292       0.11270911      -0.02091797       0.05433066
Ar      12.66439558      11.60469687      15.67429444      -0.05943373      -0.06304230       0.07566204
Ar       4.46342057      10.65202122       3.91366869      -0.03859230      -0.03508715      -0.03864075
Ar       2.03616276      17.03133408       6.10644731       0.08533386      -0.02584227      -0.07008611
Ar      13.93004613       0.96452462      17.04923111       0.01755548       0.05092246       0.02580348
Ar      16.40793855       8.17295780       6.39982613       0.03720795       0.11068431       0.03289076
Ar       5.41529487      12.47527615       7.69829500      -0.07239788       0.04904311       0.01742606
Ar       8.65799241       9.52462557      15.62112844      -0.03266704      -0.03868581       0.03747620
Ar       3.33317310      13.97125370       4.66543064       0.06527052      -0.00569969      -0.05495712
Ar       0.07410471       1.15943730       1.51564684      -0.01824794      -0.01390237      -0.05914608
Ar      16.65634491      17.07556082      15.18539724       0.04871452       0.02941508      -0.00710212
Ar      10.57900798      16.46957072      16.32718837       0.09044079       0.04034079      -0.05115867
Ar      12.57481921       3.09724199      14.61004641      -0.02631914      -0.07422219       0.01034476
Ar       5.41069182      16.81624332      12.38053944      -0.06317364      -0.08320348       0.03603552
Ar      10.44892099      15.75306421      12.59379102       0.04305056       0.07937462       0.04394326
Ar      15.44092766      11.29617524       4.11608419       0.00594684       0.03991684      -0.00455156
Ar      16.09957206       6.66134007       1.26992602       0.03691336      -0.05900889      -0.00348583
Ar      11.32421156       7.42607108       3.18224912       0.07175168       0.04725789       0.01707750
