108
Lattice="17.35 0.0 0.0 0.0 17.35 0.0 0.0 0.0 17.35" Properties=species:S:1:pos:R:3:momenta:R:3 pbc="T T T"
Ar       0.85864399      12.57974289       8.78861603       0.14151571      -0.05425930       0.00215493
Ar       8.15912809      10.17912907       4.15836260      -0.05281420       0.04711142       0.09040346
Ar       5.54516230      12.32272384       2.10487551      -0.01081444      -0.01915876      -0.02773650
Ar      16.42982514       9.67096902       9.78122383      -0.11310585      -0.04334752      -0.00656930
Ar       7.48888679       3.57391700      13.68540610      -0.01856205      -0.08377941      -0.00941365
Ar       3.28270018       4.51617693       9.37118368      -0.09951664       0.01074730      -0.02498206
Ar       0.62780908       4.75447973      15.13558299       0.07186491       0.04429703      -0.06607912
Ar      15.53710103       6.00406108       9.54991068      -0.03126247       0.07832608      -0.02019010
Ar      10.69560466       3.78680548       5.79657739      -0.00321725       0.02093193      -0.07937628
Ar      13.83719749       1.57062657      10.58081405      -0.10624182       0.04903209       0.06202031
Ar      14.68626816      12.94537321       9.84672022      -0.03800380      -0.02675223      -0.00660198
Ar      12.81149021       1.88705821      16.99520965      -0.05623466      -0.07541668       0.02040709
Ar      11.79836390       7.41409211       4.29818970       0.08975845      -0.05901097      -0.07130246
Ar       7.33611984       3.80079041       7.36169318      -0.02345963       0.03746291       0.06181618
Ar       8.25255702       6.50031001       4.70735453      -0.01323622       0.04469794       0.07422962
Ar       2.25343358       0.40307529       2.41966495       0.04955870       0.05664633       0.12550530
Ar      17.32002854      15.41631265       4.92222961      -0.06132186       0.02024205      -0.07369164
Ar      10.12818348       4.34806207       1.90185397       0.00282173       0.02658824       0.02061240
Ar       7.46908574       5.60465412      10.50814994      -0.08076838       0.04369525       0.01067228
Ar       4.76405646       6.02403810       5.55188529      -0.08103303       0.02592988       0.01074775
Ar      14.33049193       4.81898438       6.38276099       0.05705447       0.09616653      -0.06665804
Ar       2.98637978       2.10440642       5.71838144      -0.01273546      -0.04522846      -0.03766481
Ar       2.85659577       1.91161717      16.18391353      -0.02166296      -0.01325232      -0.06154111
Ar       4.71732213      10.23665426       5.19060158       0.04393195       0.04506181      -0.01086914
Ar       9.02640821      13.69519493       2.64589914      -0.01031314       0.08514696      -0.01464498
Ar       6.89475607       0.15737719       0.71316747       0.05085878      -0.08428364       0.01382379
Ar       9.21383174       2.08101554      16.24082448       0.01509227      -0.05316507       0.00965383
Ar      11.06981440       3.48369011      13.37645720      -0.02865435      -0.03617166       0.01983303
Ar      11.50577478      15.89698014       9.87193797      -0.01176391       0.01553929      -0.04332214
Ar       3.64879630      15.12342712      10.41312378      -0.00398432      -0.00122310       0.04174429
Ar       8.59564955       9.31747498       0.62861199       0.03148950       0.03375826      -0.08909144
Ar      14.13946036       3.85849089       2.77836166       0.05526638       0.05828816       0.07264447
Ar      10.14591203       7.11904597       7.52558548       0.03573347      -0.06525882       0.04044387
Ar      13.28121200       6.13892174       0.41726739       0.05359300      -0.09853316      -0.01198709
Ar      16.37535964       1.43859258       0.66921707       0.03125232       0.02805009      -0.01989924
Ar       1.98927880       8.77186583      15.05957527      -0.10161832      -0.03329681      -0.05876460
Ar       0.39414381       3.26027604       3.35363462       0.04309330      -0.12947827      -0.09504716
Ar       3.92577354       5.20482885      13.56775425      -0.02801345      -0.00302361      -0.01278306
Ar       5.24905848       1.48292935       9.30032252       0.07131827       0.00776008       0.04438858
Ar       4.76022957       1.26799574      13.05298921      -0.07674758      -0.01519718       0.08133062
Ar       0.62846280       5.40090993       6.75993779       0.08257955       0.00875889       0.10298972
Ar      12.96648738      10.28029395       7.56776164      -0.06764757       0.03539924      -0.10720865
Ar       1.47563392       1.68722796       8.68082066      -0.03912689       0.00667092      -0.10877530
Ar       5.44917901      11.04526168      16.10906453      -0.05292958       0.06574060       0.01646360
Ar      10.01425457       6.23797119      15.73324968      -0.00214545       0.04006501       0.08771824
Ar       2.01269541       6.68689823       0.90612471       0.04589218       0.02023117      -0.08227741
Ar       5.01641424       8.63260721      12.68193499       0.03063338      -0.06304409       0.05147327
Ar       5.80481335       3.71385093      17.10407387      -0.06215170       0.07499088      -0.00200115
Ar       2.79311706      12.42119236      14.20987703       0.03496909       0.04513576      -0.01045958
Ar       1.05435832       2.68288982      12.11901820      -0.05314342      -0.01365397       0.06877738
Ar      12.04235767      17.16805377      13.62867321      -0.04625674      -0.03022039      -0.00593385
Ar       1.40855354       7.19846823      10.97411421      -0.02298293       0.02458031      -0.03528296
Ar       9.25690808       0.59870287       3.37418566       0.03281437      -0.06758765       0.04866477
Ar       8.92162253       9.62427097      10.88325072       0.15818325       0.01710114      -0.13320343
Ar       1.34736460       9.81076501       3.58962290      -0.06874224       0.03996695      -0.04203073
Ar       2.00350157       8.98364043       7.59905215      -0.04061011       0.01347225      -0.08914241
Ar       1.27050617      11.41789327       0.53636986       0.02891794      -0.01233621       0.04222291
Ar       1.32942452      15.73172466      14.82648293       0.04702272      -0.02955272       0.07198100
Ar      14.60735867       9.25395970       4.50564495      -0.03536029       0.04084251       0.00220364
Ar       7.48142286      10.48524921       7.66584468       0.07902603       0.08802293      -0.02895713
Ar      14.33081373      15.98274748      17.20588436      -0.02915823      -0.01215865       0.04584821
Ar       5.71104506      15.73387326       3.62624775       0.02231310      -0.00518850       0.06798285
Ar       6.32296560       2.82449488       4.10780062       0.04426600       0.08054487      -0.02834463
Ar      16.65113793       6.34496108       3.43960695      -0.06437313       0.00216605      -0.02456092
Ar      16.21684737      12.23118516       3.50031596      -0.06451280       0.04359228      -0.01869308
Ar       7.05826417      13.36688514       5.86800898      -0.11434441       0.00360878      -0.13971483
Ar       4.18724991      14.54597316      17.18343635       0.13085190       0.02925637      -0.10454263
Ar      10.23184461      12.64501438       8.62506278      -0.03609782      -0.06270642       0.06781987
Ar      12.66074823      13.80098373       2.36806426       0.03931289       0.03164229       0.06307064
Ar       8.72194555       9.91958620      14.49539607      -0.01024247      -0.07509266       0.08365764
Ar       6.99050792      16.85498626       6.66814591       0.04595173      -0.00837694       0.12370399
Ar       9.25116064       1.72903628      10.35598405      -0.03019205      -0.02378266       0.06165257
Ar      11.12426371      11.81375861       4.94583196       0.06496862      -0.00141662      -0.01699932
Ar      13.64790466      14.20179030       6.16245436       0.03934267       0.08021917      -0.02464713
Ar      13.02678987       0.26503589       2.73308482      -0.07593528      -0.01257291       0.02084814
Ar       7.47003960      15.24203257      10.36455632       0.02262564      -0.14580105       0.00125442
Ar      10.60097429      12.43884892      16.83946708      -0.07948739      -0.02178053      -0.06606615
Ar      15.30905086       0.91265166      14.21043641       0.01425697       0.04084873      -0.02920671
Ar      11.86212371      10.16749643       1.72219644      -0.00805641       0.08241117       0.05448271
Ar       2.95550269      15.94945410       6.97868213      -0.05339905      -0.00628701      -0.09710793
Ar       0.70130223      15.07295065       1.02899830       0.05080723      -0.12795397      -0.02711883
Ar      15.66625021       1.19493297       4.92385078       0.01197680      -0.00114933       0.05427757
Ar       7.99627503      16.65930823      13.53543515       0.06144463       0.01823788      -0.01508746
Ar      16.48932295      15.64508022      11.84724305       0.00407802      -0.06427939       0.16181252
Ar      11.79900714       6.92168298      12.63946396      -0.01886194       0.01919117       0.01048288
Ar       5.65703770       7.99596530       9.04560590      -0.12306231       0.07104557      -0.06119736
Ar      15.51675759       7.53362844      13.12123279      -0.03984100      -0.00376819       0.05613324
Ar       4.69985032      12.55936640       8.47659454       0.01204227      -0.03439757      -0.13278834
Ar       5.39184002       7.29753598      15.70383700       0.05706333      -0.00010598      -0.01324505
Ar       5.11400434      14.78308877      13.60716755       0.01892070       0.03300771       0.07287280
Ar      14.41334909       4.47423733      14.62693709       0.10320524       0.05890600      -0.04328197
Ar      12.18504974       9.63332845      14.75834169      -0.02771490      -0.03017184      -0.05216673
Ar      13.90816230      13.79329591      13.52285731      -0.00306731       0.05674432       0.01888412
Ar      15.81072591      16.67072458       8.74083000      -0.04367193      -0.01639433       0.07711871
Ar       2.78537686      10.80218449      11.07326027       0.03919089       0.06073703       0.00337939
Ar      10.18776600      15.35687180       6.61406709      -0.06244952       0.01943768      -0.06310039
Ar      13.13832536       9.93072319      11.31919899       0.01090259      -0.03768003      -0.06828512
Ar       5.34715574       8.44720041       1.90264859       0.03602556      -0.03661101       0.06731294
Ar      10.23851131      16.10197627      17.10591513      -0.04916448      -0.01806764      -0.03779955
Ar       2.35829911      13.07807647       4.92360356      -0.04501001      -0.10719788       0.01984438
Ar      12.38590112       0.85939910       7.08401469       0.07892448      -0.07998446       0.05554452
Ar       7.51151362      13.82163167      16.42244798       0.01362719      -0.03724917       0.07808196
Ar      12.22928570       4.78389887       9.40390721       0.02031987       0.03494776      -0.02915060
Ar       6.26094482      11.66263052      11.54423069       0.02432893       0.01242845       0.03506617
Ar      10.00848992      13.14839007      13.20138208      -0.00572913       0.02093184      -0.03999732
Ar      14.57535609      12.06999607      16.97949250       0.03585746      -0.01087507       0.02725024
Ar      16.95501764      11.49777376      12.85707151       0.10806556      -0.13424685       0.04952593
Ar      15.78739825       8.23587246      17.01078920       0.06564227       0.07516533       0.01375580
