108
Lattice="17.35 0.0 0.0 0.0 17.35 0.0 0.0 0.0 17.35" Properties=species:S:1:pos:R:3:momenta:R:3 pbc="T T T"
Ar       1.84289004      14.29860011       4.92422939      -0.03934291       0.06732449      -0.04681882
Ar       9.50759092      10.08549200       5.19153254       0.01868181       0.02715937       0.05632716
Ar       6.47064772      10.95942145       2.53087420       0.06197900      -0.08627979      -0.02241506
Ar      16.21674119       6.79275473       9.91397760       0.10361068       0.13817171      -0.01135800
Ar       7.94280096       4.16596618      13.53182986       0.04267395       0.03795433       0.08587787
Ar       4.10281755       5.12288790       8.20998656      -0.01959836       0.01967548       0.05752416
Ar      16.65984306       5.22007188      13.31267060       0.04299980       0.02984847      -0.12166810
Ar      14.01278068       4.12112243      10.62903564      -0.06812307       0.12966369       0.12084884
Ar       8.80093429       1.97392715       6.58117456      -0.04428736       0.06926798      -0.02920236
Ar      13.02861528       3.39650241       7.20077013      -0.02589680       0.04479972      -0.06011415
Ar      16.94140634      12.94715049       8.91485304      -0.11432858      -0.07190359       0.00734853
Ar      11.83188535       1.23601648       0.79377010       0.05605725      -0.02003120       0.05960525
Ar      10.68108229       8.12380016       1.78651098      -0.01211168      -0.01709539       0.03646640
Ar       4.79769508       1.96116826       9.23836985      -0.03560593      -0.03918617      -0.05271468
Ar       8.41717319       5.24882867       7.71467542       0.05493458      -0.09995006       0.07887135
Ar       4.48703800       0.68808987       1.20246691       0.07300517      -0.00155934      -0.00548470
Ar       1.52001073       1.65092018      17.30381206      -0.07361044       0.00408727      -0.02534739
Ar       9.04952769       3.42741889       2.31494263       0.11755365       0.00787358       0.04230828
Ar       6.68759607       6.75885978      10.62803450       0.00222880       0.03874974      -0.10452043
Ar       1.62079505       7.06545132       5.55110181      -0.03745788       0.06971692       0.06752819
Ar      12.66568493       2.13883128       3.96410344       0.04111398      -0.01581717      -0.00455939
Ar       5.13609956      15.35519340       7.65019077      -0.05538887      -0.06960381       0.04601635
Ar       4.31148911       2.49171429      15.17717009      -0.08973230       0.03551693      -0.14482531
Ar       5.97864040       7.67663106       6.23068331       0.07109785       0.02868726      -0.03570517
Ar      10.39029710      16.27920775       3.13827088      -0.06259393       0.02277338       0.08614053
Ar       6.01231836      16.58877320      14.26070915       0.02435261      -0.04044640       0.01243784
Ar       5.59890013       6.11445059      15.31217858       0.12333430       0.07202906       0.02987057
Ar      11.09487083       3.02122537      15.19109146      -0.02104576       0.02398203      -0.01189351
Ar      13.79295293      14.72226528       9.30229983       0.08316832       0.02305111       0.04068349
Ar       3.00633678      13.01115772       9.30415157       0.03323961       0.01541327       0.04123718
Ar       6.94072618       7.12250058       2.86206039      -0.08255165      -0.00392793      -0.01102386
Ar      14.61711989      16.27571261       2.54691878       0.08708126      -0.12025202       0.05076847
Ar       9.99084446       6.30320590       4.78918217      -0.01098535      -0.04746677       0.00681856
Ar      12.75556368       5.49639136       2.58198048      -0.07443996       0.03375746      -0.03900577
Ar      15.31715321       4.82820217      16.83593668      -0.04738883       0.03213542       0.01777156
Ar       0.39670121       8.36185850      15.52073617      -0.02367416       0.00130237      -0.00301278
Ar       2.09206544       2.83889320       6.41094317      -0.02157462      -0.06611133       0.01148507
Ar       3.84386090       4.22478141      11.96013107      -0.01803184      -0.05209381       0.02086254
Ar       4.25499985      16.52097354      11.23899473      -0.11946023       0.06701498       0.03365864
Ar       1.17737876       1.74157960      13.47606279      -0.07589782       0.06017975       0.07678503
Ar      15.38131745       5.82588210       6.00374335       0.01491704      -0.01479710      -0.03552976
Ar      11.92206323       6.58980890       8.36874549       0.04835055      -0.04255003       0.00600446
Ar       1.28337468      16.37326991       8.97511862       0.03219602      -0.00427766       0.06461761
Ar       7.77905073       8.72134766      17.12291411       0.04750858      -0.09840125      -0.03647806
Ar       9.02254455       5.35972279      16.69678999       0.00610617      -0.04246345      -0.06488191
Ar       1.89146092       5.04816051      16.43568272      -0.03352258      -0.04510623      -0.03582294
Ar       4.78451144       9.32270087      14.22485214       0.10727716       0.04656591      -0.04397467
Ar       1.85867545       4.17610652       2.82543973       0.03960409       0.04144461      -0.03873057
Ar       5.21905653      12.91672084      14.50738075      -0.01616879      -0.02395056       0.01314112
Ar       0.34230439       3.08592984      10.36380701       0.00294441      -0.10510502      -0.00738600
Ar      12.34604868       1.27652946      11.82137326      -0.00023932       0.06104908       0.06018437
Ar       2.50941506       7.66480507      12.24780107       0.06526500      -0.03513240       0.05533692
Ar       5.18737501       4.46232077       1.37258758       0.06056290      -0.04933353       0.02164266
Ar       8.63356895      10.56854723      12.02767765      -0.02542621       0.03462342       0.09146381
Ar       2.10821395      11.11750530       3.09408932      -0.05154151      -0.01470601      -0.01452129
Ar       0.97177556       9.25535305       8.22615321       0.02827528       0.04762540       0.07085041
Ar       2.58704338      11.64659265      16.50050733      -0.04370581      -0.03888866      -0.03362058
Ar       2.83260856      16.23420235      15.36603131       0.05527388       0.01286774       0.02356088
Ar      13.91725696       8.92497366       3.97684102      -0.06385852       0.01928703      -0.09467836
Ar       9.07215722       8.52350858       8.65590369       0.05092319      -0.02257757       0.03299267
Ar      12.81009096      16.96633741      15.36539995       0.04792899      -0.02460223       0.02116367
Ar       6.06918972      14.17175285       4.30479174       0.03224406      -0.01408093       0.05914694
Ar       6.23284458       4.06653053       5.27806367       0.04082032       0.05284482      -0.11821952
Ar      15.75684449       3.85081000       2.91770413       0.02179500      -0.03181804      -0.00741713
Ar      16.62805810      10.99860861       5.84665205       0.01320817      -0.04126264      -0.01082520
Ar       7.41896122      12.01704278       7.51635502      -0.05403376       0.04343227       0.07392797
Ar       5.84938367      14.59033935       0.74739974       0.06591228      -0.00859522      -0.01260876
Ar      10.38510980      12.76146562       9.56928126       0.00454450       0.10505856      -0.10216170
Ar      12.48770963      12.00068774       2.67199797       0.05603192      -0.08159361      -0.00207093
Ar      11.71331901      11.13856301      15.35561483       0.02775236      -0.03201655       0.00181863
Ar       8.55949616      15.69267135       6.72179184       0.02202394      -0.08062881      -0.04944210
Ar       8.11881279       2.65395459       9.82943399       0.03968350       0.04818786       0.00315120
Ar      14.27716938       9.19576901       7.63211684       0.01370131      -0.09836743       0.07659622
Ar      15.02876074      14.91787208       5.90070365       0.05299434       0.01766017      -0.04008030
Ar       6.51407045       0.86849005       4.06488579       0.00902683       0.01840458      -0.07816770
Ar       8.28029447      16.58985211      10.62485016       0.00078732      -0.03312682       0.00290572
Ar       9.22156857      12.27390299       0.32295484      -0.09622723       0.04361872      -0.00700678
Ar      15.56296910       1.72683095      14.92162625      -0.05671709      -0.03372928       0.03744314
Ar      16.52533072      11.34684173       1.19207615      -0.06940013       0.00598678      -0.01580269
Ar       1.45591000       0.43915956       3.37121675       0.01029561       0.03951671       0.03542378
Ar      16.66711816      15.81491596      16.08866860      -0.00117635       0.01947000       0.00396889
Ar      16.01608643       1.68077199       5.73353639       0.04177708       0.00512052       0.06371244
Ar       9.29248542       0.26567797      14.00058905       0.03928516       0.00169891      -0.06427214
Ar       1.55243791      14.62283859      12.49776199      -0.00501596       0.03761954       0.01781566
Ar      11.76551879       9.40170920      10.61365395      -0.01765788       0.08192068       0.01017464
Ar       4.67926663      10.15556251      10.40987052      -0.02032102       0.01850343       0.04983452
Ar      14.89169285       8.89850728      13.46167374       0.03689084       0.06581002       0.01136523
Ar       4.13350244      11.36786373       5.95685129      -0.03802860      -0.06203547       0.02700884
Ar      10.40089808       8.15019326      13.67548828      -0.02683249      -0.01272964      -0.03159556
Ar       9.12185836      13.67324566      14.33648213       0.02643681       0.02319615       0.01549435
Ar      13.22893155       5.62370978      14.51641456      -0.04159593      -0.02234605       0.00398518
Ar      14.14821022       8.33938238      17.29297553      -0.07404670      -0.05520910      -0.08962169
Ar      15.37227112      16.13726050      12.02608889       0.00973525       0.07277594      -0.01723557
Ar      15.40480318       0.88412351       9.27483584       0.07495148       0.01304813      -0.08982304
Ar       0.90235771      11.13369286      11.79136328      -0.03043985      -0.08230473       0.03078869
Ar      11.55052847      13.50068344       6.12825771       0.04187788       0.01639297       0.04313691
Ar      14.42358886      12.12033747      11.78418963       0.02040052       0.02828395      -0.12822719
Ar       3.52383362       8.17241176       0.54533632      -0.04230702      -0.01211141       0.03041670
Ar       9.93483953      15.63597098      17.02378728      -0.13948353      -0.08661155       0.01018063
Ar       2.18799094      14.64224660       1.27758353       0.07472464       0.11658405      -0.07627026
Ar      11.12756570       0.10222621       8.76964246       0.01700535       0.00483223      -0.03076001
Ar       8.42101015       1.83999121      16.78101706      -0.03219168      -0.12593206      -0.07055403
Ar      10.68490002       5.13786342      11.73061033      -0.10214999       0.03575141      -0.06919516
Ar       6.56599055      13.51303600      11.07012572       0.04399821      -0.02673250      -0.01180282
Ar      12.12949798      14.62257059      12.37561945      -0.11953147      -0.02466599      -0.01224031
Ar      13.91753775      13.33823525      17.18337945      -0.07508564       0.01478159      -0.01511725
Ar      16.31757351      11.92497848      14.84004358      -0.02774965      -0.06431529       0.00171529
Ar      17.16989973       6.96706908       2.39946705      -0.00456753       0.04973062       0.12759942
