108
Lattice="17.35 0.0 0.0 0.0 17.35 0.0 0.0 0.0 17.35" Properties=species:S:1:pos:R:3:momenta:R:3 pbc="T T T"
Ar      17.08045246      10.67766690       1.44530246       0.03268555       0.02031147       0.06918240
Ar       2.31742299      17.15577972      10.86802803      -0.05101918      -0.03928215      -0.07482930
Ar       2.48283452      13.21533144       9.79875124       0.05327069       0.06223597       0.10471362
Ar      13.51730321       1.78443949       6.38152229       0.04651745      -0.02677421      -0.00356663
Ar       3.32559666       1.14122987      13.94793873       0.11454135       0.00347786       0.09107488
Ar      12.08880305       8.97530216      12.74362156       0.05076861      -0.02272521      -0.09707667
Ar      15.31055357       4.39331440       1.62065165      -0.00139596      -0.01020344       0.11485221
Ar      13.48297541       1.36359309      10.38398304      -0.03139248       0.04811445       0.01478756
Ar       8.21505086       5.44845062      11.99745956       0.04628802      -0.06088339      -0.00407697
Ar      16.06488623       4.20340144       6.90341369      -0.01914043      -0.11752755       0.05954152
Ar       2.33544492      12.15718950       6.13010036       0.01465182      -0.02982879      -0.12774859
Ar       0.01858302      15.24499166       7.72599729       0.06785650      -0.07168351      -0.03679037
Ar       3.52288420       9.36513041       8.33636597      -0.04513070      -0.02851685      -0.06394837
Ar       2.71750313       8.45864569       3.83846195       0.07870681      -0.02407323       0.05759227
Ar       5.00091865       4.47151306      10.21766002       0.07138199       0.01667170       0.02902156
Ar       8.42062781       6.90719042       1.09606998      -0.00772803      -0.02459662       0.00804696
Ar      13.48174625       1.49234270       2.54889685       0.00935656       0.01760583      -0.05999562
Ar      16.26855790      17.35724188       0.97834537       0.00070235       0.05645265       0.10814196
Ar       5.92952549       5.88019790       3.29769391      -0.11042208      -0.04950121      -0.00539198
Ar      13.09626632      11.26728616       0.75881038      -0.04498083       0.04865778      -0.05928924
Ar      10.03133259       2.60899717       4.65565351      -0.00966845       0.09434093      -0.02837316
Ar       9.16371207      10.75001383       7.03239292      -0.06490411       0.05168393       0.00668253
Ar       6.07524115       8.04129287      11.50759083       0.05082523       0.00966977      -0.00519311
Ar       6.90457283       6.93043784       8.23285316      -0.02203044      -0.03354693       0.02154284
Ar       8.68060203       3.23635711      16.70526900      -0.00428103       0.07681268      -0.04059176
Ar       1.20340617       4.51866063       0.12082598       0.02833004       0.01960426      -0.03004363
Ar      10.02435144       0.18204239       1.72569265      -0.07816761      -0.00008237       0.04175753
Ar      12.69021483       7.64529962       1.49682811       0.08294434      -0.05567554       0.07486586
Ar      13.25558526      15.10525458       9.17447206      -0.00400515       0.04925273       0.03857951
Ar      11.39513469      12.84555814      11.24530980      -0.03564868       0.02462339      -0.07489622
Ar       3.86271578       2.29487658       7.40007601       0.06776735      -0.01507316      -0.04488825
Ar      12.76379061      15.79943642      17.08669749      -0.16015132       0.08320608      -0.09884303
Ar       5.83296929      11.27533704       5.47688743      -0.03931122      -0.02703001       0.08626508
Ar      12.05640022       5.40908570      11.30268426      -0.07852637       0.04071109       0.00292187
Ar       1.26624963       7.74454451      14.65121328       0.05872158       0.04408357      -0.13357974
Ar       8.00618021       7.12396585      15.12779010       0.04728331       0.00439333      -0.01767550
Ar       2.67360990       7.70634322      11.24646625       0.02667463      -0.03089964       0.03200086
Ar      10.81126772       2.88819855      13.14893448       0.05119394       0.06037158      -0.01654083
Ar      10.42886705       0.47429465       8.17658127      -0.03601129      -0.03385725      -0.03067056
Ar      16.01348385      15.54880305      11.09101362       0.00974519       0.02504558       0.01079119
Ar       1.79049348       1.26786209      17.32340880      -0.03426011      -0.05476223       0.04945461
Ar       4.10358627      14.71267959      13.91662062       0.01650528      -0.04289210       0.04422636
Ar       7.77105798      14.77532981      11.69158143       0.00417251      -0.06052847       0.01444831
Ar       1.39820836       4.58344217       4.44193274      -0.00632487       0.02382281       0.04952262
Ar      16.99800845      11.14560920       9.51921375      -0.05620479       0.09994889      -0.07913244
Ar      14.56181628      14.29381771       3.11134655      -0.01540876      -0.00728426       0.01165337
Ar       8.35881397      11.33271670      11.11482228      -0.06410784       0.16760351       0.00618615
Ar       4.72632665       5.86043083      14.91699109      -0.03591926      -0.02307785       0.01452422
Ar       0.98729071      12.92317048      13.24892410      -0.04133958      -0.06444864       0.09496534
Ar       6.20519514      17.06848791       9.70904691       0.06096643      -0.01059287       0.04706987
Ar       4.60774153      11.84794213      12.21564583      -0.01788450       0.00751481      -0.05423644
Ar      15.18224751       5.64572064      15.10254160       0.02994267      -0.05672659       0.00599007
Ar       5.27163036       9.67503503      14.66900568      -0.01546127       0.01305431      -0.02283845
Ar      15.95858722       8.35162556      12.02951002      -0.08924606       0.04079723      -0.03533485
Ar       4.54043683      16.12482011       3.43366966       0.08166591       0.01449004      -0.02031771
Ar       3.60447540       6.21806866       6.68760623      -0.02462706       0.02006299       0.01793673
Ar       2.23273919      10.58279796      16.36098874      -0.17653229      -0.08239139      -0.00120524
Ar      13.25555461       0.15962140      13.88664939      -0.00604104      -0.08492265       0.04769348
Ar      17.16801015       2.17543865      14.40342167      -0.01621934      -0.08508684      -0.02397960
Ar      11.70296371      12.26864996       4.31227970       0.05676008       0.02395490      -0.03759732
Ar      13.41009323      11.68267113       8.02277969      -0.00883317      -0.00690471       0.00427549
Ar      13.74422373       6.42181381       8.48202217      -0.02905211       0.01000715       0.01995819
Ar      16.77552255       1.32796502       9.20682345      -0.07020483      -0.04690306      -0.01036156
Ar      12.53823067       5.34625921       4.82919560      -0.01975650      -0.12238979      -0.00513458
Ar       1.06401735       5.15473477       9.12555324       0.18110764      -0.05297538      -0.01144207
Ar       9.79823262      13.96880339       8.28965039       0.12208169      -0.03923546      -0.00656807
Ar       3.57032152       2.06986238       3.09890386      -0.13333374      -0.03529903      -0.07773260
Ar       7.61044587      17.30961601       6.12980260       0.07970605       0.02057443       0.00380492
Ar       5.54686327      13.99900877      17.21692158      -0.00595562      -0.03598978      -0.01846934
Ar      15.10483505       9.63001414      15.53986134       0.05843740       0.01444308      -0.01800075
Ar       6.95482153       2.31462715       3.08625599       0.03313712       0.09383286      -0.04679365
Ar      10.39849046       4.64275638       8.06533261      -0.01526584       0.05619816       0.00756142
Ar      14.73265093      12.82434059      12.90649762      -0.07943498      -0.02524200      -0.05882661
Ar      11.89458800      15.85351688       4.72914646       0.02828352       0.00936991      -0.05903235
Ar      11.28729440       4.46722195       1.71890671      -0.08144392       0.00150820      -0.05649469
Ar      15.45247008       4.61795409      11.27120368      -0.06147906       0.02978615      -0.02395928
Ar       6.64757046      10.52539273       0.62348499       0.00058491       0.02274137       0.02947722
Ar      11.43905997      13.28454681      15.07625439      -0.10516412      -0.01531291       0.11050647
Ar       1.36742419      14.02209305      16.83750405       0.10703789      -0.01528695      -0.05704496
Ar       8.77459891      14.34289330       4.63059707       0.00540754       0.01836277      -0.01839371
Ar      15.20114543      13.41817714      16.63379582       0.02219745       0.00354057       0.02203952
Ar      10.67050301       8.26338918       9.50782584       0.02051318       0.00148010      -0.03249472
Ar       8.45386302       2.41663664      10.03261917       0.01806077       0.05013706      -0.03336883
Ar      17.08822151       7.44994627       0.50916287      -0.11342152       0.03578519      -0.03807289
Ar       9.95629430       9.87770315       2.38422310      -0.05424868       0.07360704      -0.01852475
Ar       7.31009665      12.86719177      14.37842473       0.05292859      -0.02249541      -0.02042039
Ar       2.13949297       4.40805067      12.97564256       0.00579808       0.02552268       0.10708116
Ar       1.13370874      14.97858323       2.86325363      -0.00650186       0.02101233      -0.00725222
Ar       9.00381771       6.75035993       4.93796031       0.04054469      -0.03449953      -0.06435982
Ar       5.38640046       0.39675177      16.99778326       0.02790600       0.04845113      -0.03334164
Ar       6.81730055       3.80533905       6.91839491      -0.06311509       0.04091428       0.03905540
Ar       9.47145496      13.64905710       0.77769428       0.03420855      -0.07835864       0.05264513
Ar       3.92935076       7.61078325       0.54099610       0.00460843      -0.05960933       0.01584551
Ar       3.18546724      15.69232368       6.64802769      -0.03239658       0.03268853       0.00009591
Ar      13.07996258       2.95671026      16.08526939       0.10519369       0.01770790      -0.01798574
Ar      17.20942949       8.16683959       7.92802087       0.07482689       0.12044337       0.01225357
Ar       5.99636201      13.32590297       8.68605114      -0.04879401      -0.15826168       0.01193443
Ar       9.65647187      10.30764944      15.81844578       0.00061916      -0.07775746      -0.00063815
Ar       3.28121495      11.79800186       2.04370278       0.07320797      -0.04420178       0.00000715
Ar       0.38432888       0.88990922       5.45310283       0.10369064       0.07204760       0.09071397
Ar      16.63121951      16.08959415      14.61696556       0.03782392      -0.02902595       0.02598099
Ar       9.43163211      16.29553635      15.08849804      -0.00292223      -0.05997003       0.06748498
Ar      11.68495122       6.48562301      15.74951733      -0.07237058      -0.05224002      -0.04974078
Ar       7.48471094       1.08614336      13.36597593      -0.08464760      -0.05449302       0.03323396
Ar      10.70662721      16.66964570      11.69994097      -0.03021333       0.08935451       0.02583952
Ar      15.91694391      10.91103819       5.60046033      -0.01029841       0.05995353       0.10216161
Ar      15.62065194       7.28941445       4.43638162      -0.02309561       0.03066682       0.03801146
Ar      12.23560058       8.97184740       5.79773579       0.09730357       0.07221401      -0.08289562
