108
Lattice="17.35 0.0 0.0 0.0 17.35 0.0 0.0 0.0 17.35" Properties=species:S:1:pos:R:3:momenta:R:3 pbc="T T T"
Ar       0.75259234      11.36299879       2.58076077      -0.11074201      -0.10288155       0.01476500
Ar       1.68452333       1.17330634       9.96996686       0.02122977       0.00200607      -0.04520234
Ar       4.62808030      15.60114159       7.87156768       0.12668098       0.06647346       0.07990133
Ar      14.04811787       0.61462344       4.69996173      -0.03173297      -0.10423997      -0.00416287
Ar       6.62434271       3.12820893      12.45021146      -0.05877330       0.03698374       0.17320803
Ar      10.50405094       7.43103745      12.57115287      -0.03869817      -0.08254141       0.05709634
Ar      13.91287361       3.40483083       0.88416089      -0.13037274       0.03123460      -0.06801036
Ar      12.77011942       1.97979111       7.66620459      -0.02929699      -0.00642952      -0.05840252
Ar      10.19369793       7.61979206       8.13204025      -0.00504853      -0.06125585      -0.02412067
Ar      15.88664891       4.17227721       4.12657255       0.00821243       0.01374940       0.00113987
Ar       1.08210073      14.18269698       8.88053801      -0.05500034      -0.09486505       0.01072902
Ar      15.65740617      16.82402634       8.59327999      -0.01453214       0.10323764      -0.05681847
Ar       6.01479932       8.16279884       6.34709389       0.08897422       0.01915412      -0.04656953
Ar       2.23652841       9.36199269       7.57866252       0.12466573       0.00375837      -0.03198799
Ar       3.91265594       8.63652602      10.32441892       0.03720823      -0.02734496      -0.01378128
Ar       8.83983645       6.93428702       1.15037317       0.04412761       0.02556904       0.04025305
Ar      10.78279826       0.60560191       2.11819791      -0.12696201      -0.09474621       0.00039877
Ar      14.97081101      12.82445903       1.79042611       0.07956175       0.00804835       0.05126483
Ar       5.30338945       5.63891342       3.87102390       0.05634047       0.02642855       0.02790984
Ar      12.39341671      14.90591714       1.21483649       0.08079460      -0.05773730       0.01588387
Ar      10.52721904      17.09785613       5.97776327      -0.06272346      -0.03067332      -0.03205429
Ar       7.38229307       8.98825844      10.14386075      -0.06138794       0.00873183       0.00969132
Ar       1.63218641      10.80929816      12.64975016       0.07836546       0.01889687       0.03494108
Ar       8.83989028       6.77802303       4.74780648      -0.00474816       0.00341853      -0.03023603
Ar       9.08562696       3.33616492       0.60346632      -0.06365450       0.00506126       0.07104967
Ar       5.93312079       3.81336979      16.77959109       0.07976050       0.03017484      -0.08335484
Ar       6.95462613      16.41207608       1.60177138      -0.08791241       0.12541306       0.02885289
Ar      11.32961303       8.04545354      15.99843999       0.00791379      -0.10463978       0.10379185
Ar      11.87796171      15.17560072       9.38289570       0.05226946       0.04373908      -0.04146167
Ar      10.72629170      11.07722393       9.00361703       0.05976845      -0.07268447       0.07709700
Ar       3.42449560       4.45869284      11.01300167       0.01977241      -0.09070497       0.07404413
Ar      14.97524276      14.01386799      15.85260582      -0.01428382      -0.04773553      -0.03222960
Ar       9.75837846      10.30766206       5.59887696      -0.02110255      -0.02512468       0.00107681
Ar      11.86756488       4.18027284      11.41215772      -0.06901390       0.04536262      -0.02339259
Ar       1.67676435       8.59537026      15.74493906       0.03101460       0.05815169       0.11855087
Ar       8.59217135       5.44872353      15.11673487       0.04373870      -0.03004656       0.10583324
Ar       1.77066529       6.59666820      12.99017171      -0.00673685       0.02294591      -0.00948542
Ar      10.56262159       1.35098142      14.05487966      -0.02620915      -0.03525813       0.03001524
Ar       9.60928486       1.02946721       9.07670022      -0.03284076       0.02434784      -0.04289312
Ar       3.49764035      16.13440596      11.78754889       0.04027767      -0.01773206       0.02572657
Ar       2.99027963       4.93455260       1.06560986       0.12088139       0.03482943      -0.03855784
Ar       3.39307182       0.83447424       0.34985710      -0.06349102       0.00190708       0.00498578
Ar       7.87248192      12.87232150      10.92071064      -0.02019684      -0.05487593       0.01616468
Ar       2.29876951       7.57859465       4.09941111       0.02007942       0.03240361      -0.09044389
Ar      16.41968372      10.16076715       9.89368428      -0.04268069      -0.01512976      -0.04117936
Ar      15.69524917      16.68837391       0.95022616      -0.03054798      -0.03959111       0.00333669
Ar       5.34445946      10.84930117      14.08585538       0.03655574       0.08026099      -0.00316414
Ar       5.54319787       6.81203372      13.21085052      -0.06117240       0.04249659       0.11423006
Ar       3.73757860      14.31228783      15.31873341       0.06588445      -0.02813170       0.07100958
Ar       5.88128100       0.99217889       9.91060057       0.10499526       0.03173517      -0.06883083
Ar       3.87318971      12.75789399      10.72692702      -0.01153196      -0.00191413      -0.03800266
Ar       2.92481472       2.97031683      14.46896131       0.00116665      -0.05741522      -0.02333365
Ar       5.83647541       7.91399097      16.42335342       0.03471515       0.06443933       0.07804013
Ar      12.99199629       8.72801392      10.21588732      -0.03786368       0.05482706       0.01948439
Ar       3.46243452      16.90345876       4.02513949       0.04133052      -0.03442315       0.01907623
Ar       2.69809464       5.76891371       7.43707495       0.06154372      -0.00810899      -0.04833608
Ar       3.90672747      10.98103094      17.18982583       0.01881648      -0.07381862      -0.00593264
Ar       0.11276243      13.86618608      12.18522412      -0.04856967       0.00277188      -0.07390713
Ar      15.90886747       6.33747012      16.50377143       0.08919339      -0.02890279      -0.04832871
Ar      13.04063698       9.33310314       6.11993711      -0.04038640      -0.10856948      -0.03537514
Ar      14.43018326      13.03693845      10.43131878      -0.02700739       0.02668674      -0.10616270
Ar      16.81450000       3.15822284       7.48172041       0.00637516       0.02363451      -0.02819097
Ar       0.96464543       1.92558980       3.01180558       0.08645676       0.05000249       0.02247245
Ar      12.07671227       4.20264691       4.39626161      -0.05873434      -0.12893118       0.06890572
Ar      17.35194381       5.87278997      10.11096095       0.06101157       0.00405503      -0.05333152
Ar       8.42218136      14.81714153       8.22453582       0.09204618       0.12013147      -0.02480826
Ar       3.67719961       2.32376619       6.46583869      -0.03504833       0.00282935       0.03160963
Ar       7.12507762       0.71612261       6.37017586      -0.00957681       0.02438613      -0.07395194
Ar       5.15203720      13.36249251       2.00313341      -0.03782166      -0.04480433      -0.02117296
Ar      14.42353544       9.55293853      17.17829087       0.05741872       0.05871685       0.06394517
Ar       5.41437217       2.37477873       3.01677869       0.01994291      -0.04330338       0.00267567
Ar      10.24488847       4.25305766       7.44195407      -0.10037209      -0.05261628      -0.04669900
Ar      12.91227472      10.95198067      13.12629076       0.00986468       0.05038229       0.05803707
Ar      11.28379961      13.86099460       6.10443275      -0.05854793      -0.03742147      -0.03589576
Ar       8.40131554       3.38215868       4.61391117       0.04887409       0.03680305       0.03113872
Ar      13.54269195       0.43838539      11.17829226       0.01316519       0.00702193      -0.07100485
Ar       8.88613934      13.55722389       3.10369039       0.05662669       0.01385255      -0.02227974
Ar       9.57393830      10.70947600      13.70603807       0.03505864       0.06014292      -0.04535573
Ar       1.80133715      15.05225770       1.02472034       0.03145949       0.03671339      -0.04374856
Ar       6.27375380      14.55945914       5.19614211      -0.12446722       0.04025327       0.02438144
Ar       0.11239960      11.50267617      16.44718437      -0.06085137       0.04610839      -0.04358063
Ar      13.45759346       6.16527656       7.59231869      -0.02331232      -0.05527855      -0.05269611
Ar       8.37944081       5.28566468      10.39639470       0.02394473       0.09375858       0.08789857
Ar      15.39358192       7.67516661      12.87885346      -0.09648380      -0.08433440       0.04134310
Ar      11.47068836      10.23864128       2.16366169      -0.00121800       0.01158808       0.02654279
Ar       7.70528253      13.86133637      15.01925359       0.01509868      -0.01524160       0.03036515
Ar      14.77079331       3.39181934      13.37560104      -0.03154379       0.06872917      -0.04486051
Ar      16.16522509      14.85876140       4.85380379      -0.00045487      -0.07143191      -0.00075164
Ar       7.19702120       9.92836973       3.08786174      -0.03452768       0.06461491       0.02264824
Ar       6.42554632       0.88823053      15.18337896      -0.01964273      -0.07140550      -0.05742752
Ar       6.31201737       4.56944977       7.58554467       0.03293212       0.06230349      -0.03613021
Ar      11.56444414      12.01520229      16.43622788       0.02232216       0.01425856      -0.03767804
Ar       4.12812845      10.36454249       3.75405077      -0.01456110       0.02963185      -0.04292859
Ar       1.11873949      16.99792303       6.80587802       0.10141853      -0.02830339      -0.05121674
Ar      13.74515049       0.51215178      15.52536225      -0.03711206      -0.06581637      -0.00140543
Ar      16.81750063       7.20954935       6.64784020      -0.10767391       0.09004397       0.02653654
Ar       6.65990410      11.59445728       6.79348724       0.02276665      -0.03403977      -0.05256499
Ar       8.29562610      10.43849019      17.20434282       0.01908218      -0.00716981      -0.00419958
Ar       2.78761453      13.57324367       5.19591161       0.03328140       0.00801931      -0.03327249
Ar      16.91729397       2.55803050      16.25635815       0.04560689      -0.01534108       0.04113761
Ar      16.56868653      16.87365510      12.91254244      -0.03542159       0.02083543       0.06029146
Ar      10.06420811      15.98389007      16.29213679       0.03091708      -0.03440698      -0.00153319
Ar      11.94952401       4.49864398      15.32769015      -0.07768458       0.04642470      -0.00286514
Ar       8.85888177      16.07962703      11.87877107       0.00286461       0.01980591      -0.03371690
Ar      11.71120653      14.28261329      13.70015508      -0.09631025       0.00317701       0.04233561
Ar      16.80075858      11.70194742       6.32170584      -0.01921826      -0.03585864      -0.00427412
Ar      15.50011944       8.98847141       3.69203230       0.01088461       0.02670832      -0.02228091
Ar      12.26738253       6.78036376       2.10777126      -0.03945333       0.13304923       0.09372727
