108
Lattice="17.35 0.0 0.0 0.0 17.35 0.0 0.0 0.0 17.35" Properties=species:S:1:pos:R:3:momenta:R:3 pbc="T T T"
Ar       1.28468149      10.07060084       7.44950069      -0.05369703      -0.05188606       0.05827417
Ar       6.27497184       4.11071543       7.54657499       0.01045665       0.02842803       0.03477860
Ar       9.04903993      13.10076741       6.95004282       0.05570036       0.01442449      -0.00839773
Ar       2.02932254       3.66780005       9.27204942      -0.05719202      -0.07282670      -0.00547198
Ar       9.37967529       4.41788043      16.25769185       0.00877947      -0.04206940      -0.02272245
Ar       7.49918499       7.41210469       9.94743409      -0.01868321      -0.04193537      -0.08882525
Ar      15.91947054       3.91510634       0.21883099      -0.06277194      -0.01354449      -0.00128145
Ar      13.49394401       3.56849267       6.90842025      -0.02479859      -0.00607650      -0.03447414
Ar       9.94644353       7.25271913       6.46267321       0.02162494       0.03174403       0.02501731
Ar      12.33178017       6.80717532       3.49276144       0.05664169       0.05968365       0.10243267
Ar       1.06555551      13.74317106      11.03276239      -0.05776564      -0.04218453       0.07166998
Ar      15.30873213      15.05954117      10.45334473      -0.03732595       0.03477291       0.08575600
Ar       3.58727862       9.56083296       4.74051310      -0.03975948       0.10830392       0.00150113
Ar       4.64563475       3.01431680       4.43829926      -0.00020994      -0.02526153      -0.03009901
Ar       4.88890738       6.10611696      12.19600942       0.07893323      -0.05659222      -0.00795722
Ar       5.68196881       5.26083282       0.99115791      -0.08550333      -0.01856788      -0.08952372
Ar       0.53412378       0.90227648       2.39093031       0.07053386       0.10140391      -0.11220111
Ar       8.87166321       5.75325073       2.34694737       0.02689371       0.01264011      -0.02914765
Ar       8.43647157       3.92259271      12.44698614      -0.01620774      -0.06916852      -0.02458239
Ar       0.28499322      11.39792312       4.20551428      -0.02465336       0.06806705      -0.02029172
Ar      11.17037712      16.64302080       5.29948028      -0.04364694       0.08835948       0.05947248
Ar       5.77262905      13.33631461       8.36158066      -0.00930084       0.02774104       0.00880160
Ar       0.17144996      16.43190869      13.25561461      -0.09619989       0.02011420      -0.01487923
Ar       5.80831858       8.58092514       2.14944542       0.02053640       0.08165032       0.03461443
Ar      12.51701308       3.53313572       1.45645643      -0.11601548       0.10866362      -0.11950092
Ar       5.04182855       2.95300287      14.67581772       0.04804041       0.04896992      -0.05932588
Ar       8.28172641       0.01456969      15.90619692      -0.12365349      -0.02253197      -0.00398115
Ar      10.96480952      15.03534351      14.44569995       0.07863371       0.01089898       0.00317609
Ar      16.89276252      13.02489063       7.06396225       0.02000385       0.02715373      -0.09748881
Ar       7.87993958      14.82422398      10.37207327      -0.10093921      -0.01384056      -0.03229807
Ar       4.92816084       7.64284116      15.72937265      -0.03481102       0.02561041       0.13013952
Ar      14.01179023      15.65819934      13.39440611      -0.00664016      -0.01229799       0.05866203
Ar       6.73240132      10.14416642       6.69068650       0.04010581      -0.03555041      -0.00747261
Ar      12.77844233       7.18167389       8.63274593      -0.00784950       0.04874972       0.02404406
Ar      12.58204875       6.74353565      16.87342195       0.01852503      -0.02323141      -0.00903604
Ar       9.17224088       8.26309582      17.27805670      -0.03477450       0.10399234       0.01750824
Ar       2.25290990       6.28188574       4.48786650      -0.12118122      -0.04112814       0.08261906
Ar      10.02425992       0.59213157      11.76928065      -0.07203248      -0.00127073      -0.01544025
Ar       8.72292324       1.30618892       8.36009493       0.04627759      -0.07925024       0.03022680
Ar      16.66010031       1.49535179      10.38583581      -0.03797094      -0.00424815      -0.01997911
Ar      15.88150423       3.89681135       3.67136571       0.00585417       0.01387794       0.04914219
Ar       9.95066072      13.82030628       3.42485139      -0.01526083       0.05724063      -0.06099020
Ar       3.67803229      16.39339228      11.05605933      -0.01138106      -0.00979507      -0.01374105
Ar       6.69049880      10.85350511      17.05933594       0.05022312       0.04449206      -0.15580432
Ar      13.01887121       9.85305794       6.28730530       0.05697169       0.02154316      -0.10042897
Ar      15.74531756      16.89649434      17.28398497       0.00092966       0.02080942       0.09755847
Ar       2.95758668      10.23497465      13.03302740       0.07756088       0.01906809       0.03369916
Ar       1.41105092       5.58823823      15.53397455       0.09890811      -0.08193579      -0.05088530
Ar       4.10680626      16.92006336      15.09403413       0.08394046      -0.10956650       0.07169414
Ar       5.57021107       2.78397850      10.95782090      -0.03629386      -0.01209669       0.03558134
Ar      15.20172211       5.22529904      10.13067916       0.04441797      -0.12161931       0.03437036
Ar       2.16069590       1.98015074      12.65928948       0.00679646      -0.10682203      -0.07020306
Ar       6.60001048       6.91549080       5.10915645      -0.01723857       0.06735480      -0.00467329
Ar      14.06724115      11.47187954       9.24204819       0.02359427       0.02735800      -0.01159608
Ar       3.27661954      12.24935673       2.58584408      -0.03380266       0.06142362       0.00561975
Ar       4.08177138       7.77335502       8.44830771       0.09249572       0.04109118      -0.00977391
Ar       2.14453926       8.47418244       0.19976249       0.00597597      -0.05487819      -0.00306892
Ar       0.88486413       1.54339180      15.94897946       0.03094578       0.06089582      -0.01696182
Ar      15.89041714       7.80201554       4.59305203       0.03455401       0.01284157      -0.04361939
Ar      10.57987482      10.05267861       8.66153126      -0.08503732       0.04299666      -0.09433517
Ar      15.08157759      12.15212992      12.67501232      -0.00278059       0.05905757      -0.01344462
Ar      16.79103722      14.63599018       3.09779018       0.04218498       0.03750199       0.00964043
Ar       2.14356393       4.19424790       1.22369029       0.08217550       0.01235503       0.00957959
Ar      14.27904693       0.75438938       2.93537529      -0.02622026      -0.10506345      -0.02461595
Ar       1.21232333       6.70589852      11.19509584       0.02805248       0.03609238      -0.00359637
Ar       7.67273081      10.98707144      10.48771046      -0.07452051       0.05501489       0.01922634
Ar       3.81289757      16.44429800       4.45452399       0.14282472       0.06251647       0.00815770
Ar       7.62533440      17.34331330       4.83170315      -0.13556641       0.01368748      -0.01667897
Ar       5.56789990      15.29729448       1.43455514      -0.08316678      -0.04496270       0.00842419
Ar       0.40191853      13.06454102      15.02650294      -0.06681758      -0.00087959       0.04929954
Ar       4.78336486       0.98665964       7.46573301      -0.04076599      -0.11310785      -0.02040141
Ar      10.49699948       4.38730753       8.85483514      -0.04717979       0.03685326      -0.03052633
Ar      14.03850467       8.35199741      11.83510965      -0.02109067       0.00483268       0.02438397
Ar      12.53341211      13.25311924       6.28533655      -0.03016857      -0.14942738       0.01548076
Ar       8.92823435       1.47018152       1.98376036       0.09498339      -0.04676983      -0.02847544
Ar      11.52143857      15.10695911      10.03017184       0.04435294      -0.07426965      -0.00055101
Ar       6.84353584      12.11901309       3.83096499      -0.02399191      -0.06311568      -0.01070498
Ar       3.93836924      12.76847198      15.55577710       0.02763807      -0.03196108      -0.10186996
Ar       1.82634438      15.61319245       0.46492364       0.02728824      -0.08536690      -0.00250026
Ar      12.67494438      15.20293991       0.95011769      -0.02069319      -0.05986907      -0.03289900
Ar       0.20650593      12.18224923       0.76697665      -0.04685697      -0.06757169       0.07855288
Ar       1.20058895       1.86730180       5.94788715       0.03964661       0.00898982      -0.00055952
Ar      11.37154881      11.78149668      11.66877047      -0.02080709       0.02848625      -0.01715519
Ar      17.17901861      10.22033142      10.57525412       0.04391417      -0.03446175      -0.01195021
Ar       9.71048317      10.46552975       4.82630901      -0.02103753       0.10844313      -0.02103882
Ar       4.99868106      13.22146020      12.01546642       0.03859359       0.09167960       0.02290823
Ar      15.33576282       6.25967720      14.31536937       0.01009230      -0.08095476       0.05134925
Ar       2.99336388      13.34701117       6.13623300      -0.00299335      -0.02825440       0.04270471
Ar       7.11159667       9.40056144      13.81319234       0.01501292       0.03660518      -0.10893922
Ar       6.83706781      16.70969795      12.78986719       0.05760044       0.12002069       0.09535346
Ar      12.19821331       3.24480928      13.34620115       0.09477854       0.05851769      -0.05347705
Ar      14.46744704      12.29625189      16.62203672      -0.00483696       0.03689557      -0.00443869
Ar       1.34474866      16.34793445       8.39066045       0.04009187      -0.05941397       0.04201892
Ar      15.13174028      16.64860880       6.48790959      -0.00447771       0.02869593       0.03676900
Ar      15.56053891       2.14080558      13.60393866      -0.00015345      -0.07276100      -0.00211898
Ar       9.93584480       2.98193839       5.33911839       0.02838269      -0.07823732       0.00104314
Ar      17.27617966       6.33068007       7.13510936       0.04854674      -0.01909346       0.09249105
Ar      16.82129377       9.53314337      14.29128219       0.07963173       0.00165782       0.02200444
Ar       8.85694463      13.98932751       0.09464727      -0.04697781       0.05417556       0.12379934
Ar       5.18638131       1.30254641       1.35910034      -0.03863913       0.03263887      -0.05845932
Ar      13.19095455       0.74008346       9.38707708       0.01427772       0.01246689       0.05973741
Ar      12.84622870       0.53059426      16.01917067      -0.01362901       0.07215520       0.12042567
Ar      10.31178760       7.85170223      12.58916243      -0.06445650      -0.08919817      -0.01505392
Ar       7.96688551      12.88217503      13.89207497       0.00254005      -0.03925475      -0.07269956
Ar      12.67069435       9.90975950      14.90900000       0.06434290       0.02307877      -0.06499302
Ar      14.25353675      11.21383938       3.02909083       0.03322413      -0.05827897       0.03468604
Ar      15.47563469       8.93136757       0.43907710       0.00299378       0.06122693       0.05504446
Ar      11.33036573      11.45739982       0.65646114       0.00240047      -0.06356066       0.02816709
