108
Lattice="17.35 0.0 0.0 0.0 17.35 0.0 0.0 0.0 17.35" Properties=species:S:1:pos:R:3:momenta:R:3 pbc="T T T"
Ar       1.74639934       9.43136597       6.76777144      -0.02972204       0.07700085       0.02041714
Ar       1.94695761      16.06761431       8.33722053       0.01011694      -0.03689562       0.01426134
Ar       3.92864807      11.03068633      10.25056339      -0.01065540       0.02049087      -0.05754363
Ar      10.06478272       3.17087061       4.58696278       0.02189049       0.08250093      -0.02984150
Ar       4.93217366      15.11000851      15.51919991       0.02876235      -0.07870777      -0.06616593
Ar      13.29656208      10.08564673      13.73523919       0.14641065       0.09956588       0.04466663
Ar       0.64216453      16.10738501       2.59187094       0.09534468      -0.08569715      -0.04306567
Ar      15.14017707       5.72421901       9.31746545       0.00110457       0.09087537      -0.03506879
Ar      13.82728676       3.09532837      11.90626903       0.02794470       0.03464557       0.13141292
Ar      13.93685097       4.67781738       4.90297230       0.04144656      -0.03172439      -0.05080435
Ar       5.39603442       7.80849640       9.24820780      -0.04481936      -0.01835000       0.09311687
Ar      15.10866311      12.17144869       7.32584903      -0.02234542       0.00769219      -0.05765051
Ar       2.66188061       2.46525025       8.75344748      -0.04496322      -0.00927175      -0.12211821
Ar       4.62074115       7.45200440       5.37887933      -0.04495262      -0.00658523      -0.02567491
Ar       4.92053944       0.46403325      12.58486303      -0.12633298      -0.02989155       0.02583603
Ar       4.50447250       9.94294457      16.76420593      -0.01988312       0.07062781       0.15332574
Ar      14.05718023       4.58106898       0.53104903       0.10676473       0.15978327      -0.06766766
Ar      17.00582987       2.01955393       0.50806702      -0.04193810      -0.06975530       0.01849464
Ar       4.35906847       3.50153984       5.07180257      -0.04575376      -0.01425682      -0.10573749
Ar      12.51514142      10.97096364       3.88183610      -0.01966079       0.12774786      -0.04125508
Ar       9.53380668       7.88879973       2.67059647      -0.11353761      -0.05404823       0.02563325
Ar       7.56043661      10.59419577      10.57796387       0.00132922      -0.05353500       0.03359557
Ar       6.38031044       4.01180075      10.79216757       0.07724198       0.01831652      -0.11400037
Ar      11.88998202      11.41637596       8.97800784       0.07381157       0.02970104       0.10344618
Ar       5.89597394       8.09736721      13.19720780      -0.04757012      -0.01416461       0.11904702
Ar       3.60413633       1.73750713      15.63176195       0.01196017       0.02588511      -0.10036067
Ar      11.92932564      15.90878573      16.13421593      -0.03387791       0.00579134      -0.00624536
Ar       8.87912230      11.84667572       2.64445565      -0.05275170      -0.01870232       0.04421023
Ar      15.67480178      15.80037232       6.80877736       0.00204152      -0.01810353       0.00432736
Ar      10.01607433      14.49816125       9.77039680      -0.05833303       0.00945337       0.00153485
Ar       3.18461519      17.15226379       5.11999797      -0.02386370       0.03800028       0.01503314
Ar      10.28000099       4.99771423       0.90296016       0.06372132       0.00245976      -0.02906753
Ar       5.92032009      10.48242651       6.67274807      -0.01236814       0.00452430       0.03052821
Ar      12.78701002       8.64441247      10.53446001      -0.15723071      -0.00913154      -0.02122751
Ar       2.18040685       8.36948897      13.99860586      -0.00390473      -0.06233825       0.08838239
Ar       7.68808032      10.53378252      16.72540907       0.02256833       0.09704005      -0.07272841
Ar       3.45867603       4.92951352      12.22665947      -0.00547876       0.02586211      -0.15480119
Ar       9.40123333       6.39354214      14.46565478      -0.03239840      -0.00069288      -0.06487803
Ar      12.36388242       1.31835192       9.16137152      -0.02497689       0.00425429       0.02747033
Ar      17.23817118      14.44662725      12.07394389       0.01142150      -0.03003888       0.01526367
Ar       4.64572723      16.83419713       1.42120763      -0.04531932      -0.03955538      -0.01844045
Ar       3.62011574      14.70852116      11.45425376       0.13768285      -0.09454058      -0.04142219
Ar       5.57996488      11.99599757      13.44210097       0.03697530       0.04622201      -0.06074962
Ar      16.24292716       1.86542943       3.88858660      -0.02611600      -0.03176939      -0.01042695
Ar      16.79317581       9.50569639       9.37569205      -0.05789369       0.06574145       0.01645134
Ar      15.54900118      16.38036965       0.03604864       0.07812711      -0.02390639      -0.04304307
Ar       9.61690653       9.50278377      12.98941181      -0.01969266       0.05565180      -0.06855298
Ar       8.58613321       6.90720535      10.28766681      -0.11301545      -0.07049866       0.03194500
Ar       2.23602652      13.20914402      14.36996830       0.01306433      -0.03236331      -0.01312154
Ar       4.31485510      13.65618929       6.95420327      -0.09752305      -0.05269475      -0.08548645
Ar       8.14977183       7.82315734       6.57016707      -0.08588776      -0.09139652      -0.00345271
Ar      15.66890143       7.77103302      15.54892564      -0.02617279       0.07028528       0.03613697
Ar       0.43065824       8.98869355       0.88727489       0.01219831       0.00695967       0.04422286
Ar      17.12119239      10.85607569      12.88506639      -0.02405657       0.01251708      -0.06234582
Ar       6.44652128       3.01214422       0.77508982       0.00266041       0.02146757       0.00402405
Ar       5.38654140      17.07116854       8.57205951      -0.00421136      -0.02014514       0.06771913
Ar       4.21631783       7.02213556       1.86675453       0.00970134       0.03708379       0.00508889
Ar      15.76973659       1.06755874       9.53318870       0.05536177      -0.03024446      -0.00136915
Ar       0.24464378       2.53736679      11.90728006       0.04547048      -0.01210300      -0.05633436
Ar       7.64906743      14.51258073       4.95493861      -0.04378981      -0.09875165      -0.09078026
Ar      14.55854934      12.67396890      10.72657006      -0.10663056      -0.09853069      -0.02277564
Ar      12.14673196      14.37503043       7.03307868       0.00477151      -0.04516574      -0.00675517
Ar      12.30997726       0.54987348       5.54880188      -0.00604937      -0.07876675      -0.11410209
Ar      14.31381009       8.01066340       2.42189239       0.03894174       0.02235391       0.02712238
Ar      16.96560384       3.98741182       6.67150320       0.05260448       0.06254925       0.02715490
Ar       8.96480774      17.07146710       6.72877749      -0.03088476       0.01818572       0.05326662
Ar       2.47552174       3.09197726       2.31359462       0.07081623       0.10463933       0.00368610
Ar       6.97359997       1.10794496       4.29911902      -0.02837859      -0.07409687       0.07005138
Ar       2.77506869      11.02363759       2.83690841       0.04191753      -0.00195844       0.03862716
Ar      12.20250679      12.00738996       0.28960287      -0.01621092       0.04017319      -0.03962090
Ar       6.28018549       4.22237049      14.59162940      -0.01237378       0.06250226       0.09519593
Ar       7.83286935       3.08394130       7.72869532      -0.00049955       0.02684052      -0.02382779
Ar      15.22122222      13.53358505      15.07588764       0.05787701      -0.14943656       0.01576009
Ar      10.77231314      15.45852800       2.85072786       0.03614839       0.05474010       0.00888236
Ar      11.90251035       8.00091323      16.81109138       0.12268735       0.06388845       0.04547253
Ar      16.66777334       6.64527388      12.28953542       0.02291717      -0.06253935       0.02936202
Ar       4.55771740      13.81200321       3.34761363       0.10970561       0.01501928       0.06024927
Ar      10.31139408       1.10052764      13.35687479      -0.04128116      -0.03892649      -0.03252706
Ar       2.62128504      13.84841754       0.55281323       0.03205338      -0.01304063       0.10575519
Ar       1.07894567      13.41871105       4.99655020       0.05650767      -0.03517634       0.11073093
Ar      16.50256018      12.12326965       1.07873952      -0.06332802      -0.00714537      -0.11460554
Ar      10.16717368       4.00253908      11.13336380       0.04994291       0.03214679      -0.00344946
Ar       8.46972713       0.68708694      10.58248610       0.04434785       0.04818399      -0.02873960
Ar       0.38573148       6.87486072       4.22412828       0.02174916       0.02092085       0.00056890
Ar       9.45452512      11.53075205       6.40761719       0.00086934       0.14506537      -0.02089292
Ar      11.39983655      12.93082330      13.36200643      -0.12608439       0.01118828       0.07535576
Ar      16.22491294       4.14959785      14.95596937       0.00549037      -0.04484358       0.02136008
Ar      14.64398883      14.23170445       3.62861563      -0.05851770       0.00347627      -0.01530989
Ar       7.39521638       7.04036465      17.23443570      -0.01159897       0.00268771      -0.03310298
Ar       7.12785481       0.89005358      15.27446646       0.00205467      -0.03441040       0.03185281
Ar       7.25266418       5.18631111       3.43250753      -0.07796852       0.04327294       0.01026686
Ar       9.47497454       1.35398267       1.39866320      -0.01550825       0.00425038       0.05271023
Ar       2.77288191       5.36906131      15.78878523       0.09738692      -0.04223041      -0.04083966
Ar       1.38292137      12.55809871       8.51828478      -0.03318401      -0.00514278       0.03504646
Ar       0.21764168       5.61485327       0.71532185       0.04087881      -0.06993811       0.11214893
Ar       1.24130321       6.24195147       8.95397034       0.02224717       0.00210410      -0.07121378
Ar       6.77225620      13.94993342       9.41772010       0.03131321       0.00670434      -0.02271849
Ar      11.42768936       8.46392738       7.06657793       0.00593707      -0.03164868       0.03386250
Ar       6.21073891       9.80307648       3.11372774      -0.04927689       0.04369168      -0.02595603
Ar      12.93543173       1.45396336       2.33982706      -0.07885088      -0.03045547       0.01138245
Ar       0.94008950      17.06638032      14.15834380       0.03921844       0.04052703       0.03466518
Ar       7.82511108      14.95689229       0.80791049       0.08879268       0.01164161       0.00740975
Ar      12.96349498       6.29642207      13.38045268       0.02660717       0.06631457      -0.02050100
Ar       8.00266424      14.78496453      13.37682656      -0.02987663      -0.04096476      -0.00079308
Ar      14.22708816      16.36688158      13.13262277       0.00831098       0.00380796       0.02648596
Ar      15.21540701       7.75124206       6.72857079       0.06611792      -0.11035830       0.05376247
Ar      16.25192580      10.30638879       4.34483265      -0.00223395       0.00540047      -0.01188552
Ar      11.50747657       4.90366682       7.88305266       0.01639795      -0.05578802       0.05725805
