108
Lattice="17.35 0.0 0.0 0.0 17.35 0.0 0.0 0.0 17.35" Properties=species:S:1:pos:R:3:momenta:R:3 pbc="T T T"
Ar       0.24647139      11.90299928       2.18794386      -0.03644823       0.03938485       0.01482342
Ar       0.38271627       0.83849554      10.82922677      -0.01985784      -0.07111975       0.06589076
Ar       2.60054040      15.36531731       9.56030069      -0.00532996      -0.00226450      -0.06833666
Ar      13.19945953       0.34653809       6.33224810       0.02283360       0.06685850       0.04365307
Ar       3.36926220       3.50991963      12.03542659       0.00907230      -0.00310820      -0.16578155
Ar      12.83768060       9.52789257      12.79859090      -0.02949149       0.10306565      -0.04358317
Ar      13.42102942       4.44836208       1.50984488       0.05288966      -0.02750505       0.08536921
Ar      14.08608728       1.88366420       9.44697383      -0.12713967      -0.06942085      -0.07481148
Ar       8.94246602       7.51076485      11.33916030      -0.06384177      -0.02031660      -0.12017387
Ar      16.47593533       4.21707339       4.28518038      -0.05464754      -0.05272187      -0.01558791
Ar       1.06095677      12.03407944       8.76784165       0.04791911      -0.06432899       0.03484109
Ar      16.09731377      14.68498492       8.62206744      -0.02994592      -0.00413979       0.04373777
Ar       4.43394788       9.18372806       6.52899852      -0.12100363       0.04838899      -0.04832584
Ar       1.30191477      10.54901103       5.42908147      -0.02303792      -0.07043108      -0.04220748
Ar       4.18953327       8.33843169      11.20051268       0.14361090       0.02272072       0.10561297
Ar       9.98851007       6.68815138       1.20416020      -0.05933540       0.00516495       0.01278639
Ar      14.57402780       1.27205952       3.24761516       0.01785156       0.12608059       0.01027187
Ar      15.42161984      15.21909346       1.30532968       0.05185411      -0.04904063       0.02732092
Ar       5.42137278       5.77809824       2.39286951       0.02876984      -0.04758458       0.03332983
Ar      12.15292627      15.72318167       2.32414724       0.04257384       0.07911186       0.00438283
Ar       9.93216366       2.33078453       5.59618083      -0.04870487       0.02068229      -0.03083195
Ar       6.31524485      10.55369115       9.32775976       0.03216948       0.03297486       0.01488662
Ar       3.57131000       9.29439275      15.24884087       0.05523552      -0.02009354      -0.03337447
Ar       7.19739115       7.25151185       7.61136294      -0.05018817       0.02089220       0.08033758
Ar       9.59319569       1.93572954      16.13681126      -0.00573867       0.04156189      -0.08222813
Ar       6.41628911       3.77793308      15.85985404       0.04915122      -0.08667698      -0.07167553
Ar       8.79570971      17.14191765       1.60572185       0.03893739      -0.06916135      -0.08508153
Ar      14.17578952       7.78930591      17.28972392      -0.05315114      -0.00502518       0.06387814
Ar      11.81465604      14.29491364       8.70406919      -0.04787480      -0.00464259      -0.00847398
Ar       9.81398783      11.10381121      10.19067702       0.05936787      -0.00804626      -0.00607038
Ar       3.61555185       4.98606350       8.91606219       0.00734794      -0.00820797       0.00106707
Ar      12.95333226      13.88568962      15.47837251      -0.02270692      -0.03186177       0.14495246
Ar       6.81619917       8.92036955       3.54568747       0.03639913      -0.07643804       0.00558906
Ar      12.50740166       5.57730543      11.74770267       0.05756405       0.03294941       0.02864013
Ar       3.34581532       5.44945655      15.64229230      -0.02171301       0.04184650       0.00299038
Ar       9.32033926       5.27390700      13.99565112       0.07495749       0.01727328       0.04232009
Ar       1.54614343       6.71557892      12.75466101       0.02417415       0.03464091      -0.01225288
Ar      11.06342316       2.09775813      12.99592982       0.06831595      -0.00680170       0.01158388
Ar      10.16109461       0.41508994       8.72937869       0.07275624       0.01710826       0.00388065
Ar       0.16014487      14.17851679      11.80005647      -0.05230118      -0.04116092       0.02224293
Ar       2.83271256       1.44646130       0.78938857       0.03971952      -0.05488693      -0.02287120
Ar       3.00399876       0.60653709      14.21073818       0.00173786      -0.07932656      -0.03480215
Ar       7.10429276      14.75264709      10.88602096       0.02933860       0.07391190       0.01388716
Ar       2.24522939       4.68347061       1.76689030      -0.04655246       0.08467406       0.07177179
Ar       0.81536602      10.68939682      12.38159061       0.02034761      -0.03644197       0.06229918
Ar      14.63230004      14.50206493       4.94862627      -0.04577023      -0.12832954      -0.00346202
Ar       6.42537990       9.76186711      13.30248706      -0.04813261      -0.01483598      -0.07293618
Ar       6.07065375       5.73758688      12.73502488       0.13364358      -0.05913776      -0.00863283
Ar       2.87002856      12.89198598      14.33189836      -0.09386395       0.04313060      -0.03634279
Ar       5.05299646       1.47322975       8.04196057       0.01114906      -0.06482694      -0.00623784
Ar       4.26498357      12.17645603      11.34160906       0.05774576       0.03369296       0.01739728
Ar       0.31271003       3.83975667      14.71087677       0.01348459       0.01870133      -0.08874218
Ar       6.28253985       7.51760574      16.60239676      -0.01686008       0.05232931      -0.03687719
Ar      15.19879766       7.58893888      10.78034982      -0.04359766       0.06064861      -0.07291901
Ar       4.50424229      16.31609120       3.18028882      -0.16125314      -0.04413886      -0.06563414
Ar       1.39257174       6.96238889       5.54275577       0.03001748      -0.03801130      -0.00012629
Ar       4.00925938      11.67806208       0.66012441      -0.01745555       0.00402787       0.03781291
Ar      14.68594060      15.90279602      13.24484077      -0.03397784       0.01305369       0.06234671
Ar      16.65311615       2.87457018       0.78269485       0.01469995      -0.09027859      -0.00355753
Ar      11.67129023      10.04350810       6.14423898      -0.02796017       0.02955725      -0.05882005
Ar      13.90865365      11.83788080       9.19082513       0.09910474       0.00090881      -0.00520804
Ar      15.65827733       5.95199566       7.36424242       0.04088264      -0.07822415      -0.05228807
Ar       0.01370486       1.36917854       7.09371633       0.02348511       0.09156255       0.04538224
Ar      12.78195089       4.17607306       5.09900618       0.00512079       0.03358308       0.01092388
Ar       1.23200039       8.42301688       9.20307723       0.01205467      -0.11492034      -0.07370615
Ar       8.38604093      13.36052497       7.27542951       0.02568421      -0.06568300       0.00046469
Ar       2.32192947       3.44118438       5.50984227      -0.09395560      -0.08346734      -0.01928821
Ar       7.13583894      16.90061944       5.93619063       0.01198048       0.06324502       0.01185990
Ar       6.08415767      14.37983108       0.59979432       0.03947387      -0.00717141       0.05468625
Ar      14.85085541      11.02639521      17.13504268      -0.09458076      -0.04147646      -0.00891771
Ar       6.16886003       2.18666387       2.53017211      -0.01831501      -0.10607589       0.08959122
Ar      10.49674242       5.11294542       8.37547260      -0.03741882      -0.03978041       0.12666988
Ar      14.58479190      12.39677483      12.40840868       0.00639179      -0.05508471       0.03342181
Ar      10.67650456      15.40417779       5.47608403      -0.11389602      -0.01423894      -0.06475530
Ar      10.02780045       3.15739948       2.14222181       0.05285316      -0.04845645      -0.03644820
Ar      14.78081359       2.32666713      13.00809397      -0.02541574       0.03549315      -0.05105530
Ar       7.48649612      11.03372260       0.43109340       0.00163997       0.03423411       0.04304635
Ar       9.85556701      12.41075434      13.34590333      -0.04461866      -0.04610491       0.05716481
Ar       2.30324731      15.47228694       0.21386501       0.00138690      -0.09127342       0.01566524
Ar       7.63749483      13.58872594       3.52018374       0.11927782       0.06516605      -0.00212914
Ar      16.82694501      13.29454770      15.32967510      -0.02162212       0.05755639      -0.01830005
Ar      11.97849975       8.37068642       9.51735484       0.01969891      -0.00756493       0.06467336
Ar       7.01621753       3.64365172       9.73937169       0.08786309      -0.00103738      -0.03025994
Ar       0.14540677       7.76176731      16.02327724       0.00575487       0.14295759      -0.02142523
Ar      10.64246460      10.37293849       2.64409832      -0.00191229       0.06519416       0.04874960
Ar       6.76330259      13.18781391      14.69681218       0.07045649      -0.02782568      -0.03379708
Ar      16.89677002       4.14744860      11.03906217       0.05931524      -0.03502812      -0.10635344
Ar       0.69269586      14.02327383       5.60298721       0.03423025      -0.02016493      -0.02392092
Ar      10.15943750       6.71980883       5.05930845       0.05032192      -0.04923985      -0.08096411
Ar       5.82094535       0.21850598      16.66836690       0.02145619      -0.02409860      -0.04691493
Ar       6.57541318       3.52495674       5.64892409       0.01125072       0.00973748      -0.03552059
Ar      10.16784980      13.02436536       0.49926220      -0.04426336       0.03725204       0.00505221
Ar       3.25463870       8.82967316       2.96296174       0.01502246       0.00427983       0.03832928
Ar       2.73549336      16.63417995       6.22881685      -0.04151327       0.02285021       0.05275842
Ar      13.89677554       0.90483922      16.48595242       0.05115500      -0.01494015       0.01513874
Ar      15.29658550       9.61471037       6.50722789      -0.00220752       0.03981521       0.01489056
Ar       4.15784335      12.82675772       7.41394774      -0.04846638       0.07737850      -0.04521787
Ar       9.99665934       9.44078492      15.69262927      -0.03812105      -0.00103171       0.08350259
Ar       4.04010160      12.69524190       3.90212914       0.00661909       0.06161227      -0.02593537
Ar       0.73695161      17.32292664       3.44861562      -0.02040467       0.05573680       0.02048573
Ar      17.04681419       0.30489278      14.99204227      -0.08823724       0.11650338       0.04397685
Ar       9.72766665      15.98153718      15.21110090       0.03037358       0.02117162      -0.05339653
Ar      12.80183645       4.02923639      15.53268570      -0.06080818       0.10095101       0.01796793
Ar       6.82239207       1.82244111      12.60708186       0.02970394       0.04820005       0.14502553
Ar      11.17406785      16.05976927      12.04191582      -0.01039223      -0.00402572       0.05463480
Ar      14.18879154      11.31733592       3.82182846      -0.00581011       0.00544305       0.02222624
Ar      17.15387817       8.40564441       2.73364428      -0.00701012       0.08780859      -0.05938238
Ar      13.56625092       7.50899657       3.56322024      -0.05134232      -0.01584707       0.02975050
