108
Lattice="17.35 0.0 0.0 0.0 17.35 0.0 0.0 0.0 17.35" Properties=species:S:1:pos:R:3:momenta:R:3 pbc="T T T"
Ar       3.52698598      10.21607632       5.28893012       0.08510166      -0.06494906      -0.01591083
Ar       5.83071561       7.46350937       5.68018425      -0.04368879      -0.02756694      -0.05868260
Ar       6.28847939      11.95603794       3.95267755       0.11231388       0.00311042      -0.03333694
Ar      17.15123317       5.74956906      10.03032292      -0.00543765      -0.01868022       0.08152626
Ar       8.36685698       6.16053769      15.91525586      -0.05525996      -0.00346192      -0.01124546
Ar       5.95238735       8.70612197      10.70579882       0.02555698      -0.10426298       0.03113386
Ar      15.48811345       4.72793020      13.82445082       0.05609336       0.03081208       0.08003804
Ar      13.81673614       4.96062643       9.14487519       0.04820405       0.00011383      -0.09543838
Ar       9.41951778       5.18153282       6.50236973      -0.01351149      -0.06442736      -0.05418385
Ar      12.55019300       2.00540026       7.21056687       0.03812109       0.00878816      -0.01135229
Ar       1.65831967      12.79575851       8.57631215       0.02308799       0.03232005       0.09073284
Ar      14.04055201       0.47779637      13.73498312      -0.07325493      -0.09771315      -0.05712493
Ar       7.92676465       9.25331221       0.22999542      -0.02418511       0.05683149      -0.02776081
Ar       4.97105820       2.65113544       6.75504925      -0.04856919      -0.03789668      -0.03912208
Ar       5.08149260       5.57043600       9.21893964      -0.07322526      -0.00150565       0.07745359
Ar       6.09481888       1.18548807       0.31193054       0.00186460       0.06578606      -0.01073591
Ar       0.54584517       4.20572201       2.01108248       0.08048812      -0.01129811       0.00926692
Ar      12.56332407       3.35090200       3.64645103       0.01128506       0.00883745      -0.07945721
Ar       6.44044821       5.77811304      12.32692310      -0.05139300       0.02092108       0.04847699
Ar       0.80589977       8.45896687       4.44297707      -0.08159646       0.05903835       0.01288257
Ar      13.71799064      15.59065567       6.25152826       0.03163806       0.00037248      -0.02443194
Ar       6.54925438      14.76395602       6.97247306      -0.01134629      -0.01497146       0.02151694
Ar       3.53737756       0.67711284      13.40281893      -0.01960936      -0.04255885      -0.00917942
Ar       3.65209707       7.22003709       3.06826753       0.08034704      -0.08941908       0.01868466
Ar      11.43662028      17.25613174       4.26584749       0.03319982       0.04412747      -0.00281259
Ar       7.13578592      16.83300543      14.66466133      -0.01099926       0.04848180       0.05481924
Ar       5.94710124       3.28447496      14.76091190       0.05547213       0.03475990      -0.11210283
Ar      11.04864518      15.90806520      12.99000481       0.08932613       0.07060306       0.03313780
Ar       0.46754034      11.76149919       5.34654109       0.03000287      -0.06239928       0.02105667
Ar       4.54240170      15.68506617      11.00551287       0.07998485      -0.11002811      -0.02765617
Ar       4.96347860       5.32351291      17.08143009      -0.02167268       0.02823376      -0.06707466
Ar      15.08521158      16.56583426       1.18852086      -0.05178784       0.03917111      -0.02221348
Ar       8.84451733       8.79415331       4.28141227      -0.09477215      -0.01593936       0.06763379
Ar      12.70015731       6.57304202       5.48719533       0.02670531       0.03478568       0.07099010
Ar      14.75355089       2.55784010       0.21566157      -0.02316449       0.01505176      -0.02528485
Ar      14.56235230       6.94858395      16.38057241       0.02632365       0.03452766       0.07308531
Ar       2.15838333       5.77045415       6.69006391      -0.01117003       0.00765505      -0.05011057
Ar       8.96532344       1.45209647      12.32430824       0.00635096      -0.11401934      -0.07619568
Ar       5.78708009       2.18303062      11.12403499       0.08641823       0.08495866      -0.06421361
Ar      16.08348572       1.79126623      11.40952263      -0.02242573      -0.09022602      -0.05866822
Ar      16.22174029       5.22326027       6.02416442      -0.01409387       0.05652772       0.10063607
Ar      11.84957603      11.46661008       5.79954133       0.08475068      -0.00460963      -0.01728096
Ar       3.16156098      17.06087291       7.76862657      -0.00765557      -0.01248807       0.01400709
Ar       6.92190963      12.68914350      16.28389355       0.03948092       0.05818402      -0.00846444
Ar      11.18595955       7.33068228       1.69806795       0.00028695      -0.03885882      -0.03364864
Ar       2.60870343       3.08559823      16.03680246      -0.10184863      -0.00794436      -0.01720266
Ar       5.20722231       9.37215136      14.70570363      -0.00543680      -0.01267070      -0.10956818
Ar       0.59106448       7.59412416       0.58710807       0.04047476      -0.09736118      -0.02933689
Ar       4.24449382      13.95716111      14.39180471      -0.00910658      -0.04527197       0.02086406
Ar       2.52863214       2.70991783       9.53981616      -0.01735223       0.02540061      -0.00649312
Ar      12.14842259       3.40929674      12.38995656      -0.00699415       0.06743028      -0.01150986
Ar       3.32052251       4.37898979      12.78341585       0.03583674      -0.04281708      -0.01389577
Ar       9.60105194       4.13211016       1.12495515       0.09362904       0.04059248       0.02721592
Ar       8.62282075      11.16033324       7.32714005       0.02717236      -0.02570017       0.10293721
Ar       3.64635633      10.20851692       0.61361039      -0.02841215      -0.03621905       0.01609017
Ar       2.85754509       9.04089626       8.96691422      -0.03699739       0.09728085      -0.00114758
Ar       1.59946215      12.59969841      16.75888445      -0.01180868       0.02576161       0.01876365
Ar       3.36745054      16.44337783      16.57354678      -0.03888110      -0.08659880      -0.06688475
Ar      14.46089538      10.12441855       4.13121444       0.05800435       0.03677716      -0.01093538
Ar       8.95290050       7.41566420       9.30558747      -0.01313461       0.06517041      -0.04197912
Ar      13.69417631      13.95660857      12.21320584      -0.07844943       0.05491187      -0.09819954
Ar       1.27795853       0.66478336       2.13922241      -0.02437470       0.00783884      -0.07187347
Ar       5.46112386       4.43860776       3.02457865      -0.01733868       0.09599206      -0.02343542
Ar      15.22504809       1.17637023       4.21353549      -0.04771721      -0.03076094      -0.02850626
Ar      16.64405773       8.99779436       7.58268105      -0.00268316      -0.09462240      -0.07491238
Ar       5.15987744      11.63181679       8.58465496      -0.01885426       0.00113086       0.07625637
Ar       4.09267766      13.95555188       1.69283567      -0.08201804      -0.00174244       0.06547444
Ar      10.65434109      14.42556577       8.17717981      -0.07677243       0.02020529       0.05657301
Ar       9.41223173      14.08232284       4.50393857      -0.01587342       0.02682888      -0.05009611
Ar      10.76646731      12.16111156      14.65091892       0.07207103      -0.02182702       0.00053970
Ar       6.17378391      16.91228923       4.16784609       0.05602086       0.06329705       0.04079844
Ar       9.88587295       3.88518364       9.56207133      -0.01297037       0.04635234      -0.04428975
Ar      12.61042265       8.31836183       8.71090798      -0.01982989       0.06950555       0.05145697
Ar      14.39197199      12.68200251       8.65777576       0.05476360      -0.05206861       0.01192306
Ar       8.13612551       2.53920131       4.22734659       0.06876578      -0.08145563       0.07574182
Ar       7.88856441      15.85147517      10.99515424      -0.01584922      -0.04115773       0.01307256
Ar       9.20075500      12.63406807       1.38659790      -0.04001756       0.01294934      -0.08729662
Ar      17.32614344       0.44791834      16.00874644      -0.01215817      -0.06219880       0.14458485
Ar      17.07195315      11.05484047       1.85943935       0.02682197       0.05154817       0.05524279
Ar      17.27375208      15.34824885       7.17145198      -0.02028717      -0.04335025      -0.02176025
Ar      15.69528232      14.29389598      16.24062808      -0.02667717      -0.00048291       0.00356062
Ar       1.37776432       2.10749082       5.46178240       0.06559717       0.04181486       0.04707906
Ar       9.75270762      12.42109507      10.92443565       0.01882046      -0.05216274      -0.13578223
Ar       0.93156455      15.36591389      13.70736955      -0.10675341      -0.02158862      -0.00159498
Ar      11.80112279       8.93266375      15.47252614      -0.05774101      -0.01426671      -0.00322404
Ar       2.77055339      11.27258078      12.05952871       0.03115053       0.01302489       0.08851638
Ar      15.06032556       7.74431640      12.48654376      -0.03682796      -0.01938854      -0.03949324
Ar       2.85076124      14.97104639       4.88949586       0.10121756       0.00523182      -0.00989914
Ar       8.79021005       8.89539980      13.26768441      -0.01155400       0.11044697       0.07558224
Ar       8.03888617      15.73886818       0.94906410      -0.04061266       0.00129436       0.02409634
Ar      11.89494664       4.91862455      15.58511084      -0.01569795       0.01177643       0.00331696
Ar      12.48956968      10.92216565       0.97345521       0.00272015       0.04510398      -0.01081649
Ar      16.52870692      15.68679452      10.38121515       0.02476539       0.11528964       0.07859913
Ar      16.01150581       1.61391055       7.79547450      -0.01986909      -0.09740583      -0.02041783
Ar       2.10893435       7.77178611      12.28034720       0.03501391       0.01976542       0.07658601
Ar       8.69195110       0.18829125       7.07107823      -0.10041384      -0.10579165       0.00371596
Ar      16.48215075      12.03831705      11.40551085      -0.00977557       0.02056272      -0.13929727
Ar       0.85618583       9.29638651      14.93315222       0.00670839       0.05173555      -0.05735956
Ar      11.42855133      15.01988872       0.17778657      -0.03962088      -0.00677446      -0.03396990
Ar       0.14268866      14.48821608       2.34815104       0.00550417       0.10407240      -0.02550859
Ar      13.41387496      17.00519902      10.12767216       0.02397556      -0.07786785       0.04332492
Ar       9.95694824       0.95873616      16.04287456      -0.00321849       0.04894180       0.11163214
Ar      11.49011818       6.80111510      12.15199115       0.01410578       0.00560829       0.07824247
Ar       6.59381828      11.96050638      12.17908956      -0.02186640       0.05415572       0.04456986
Ar      12.93812638      10.62699206      11.57468227      -0.03376038       0.07318967       0.03490683
Ar      14.17081055      13.60052076       3.15951733       0.02421475      -0.09475801      -0.01939286
Ar      14.74368153      10.61167415      15.46679201       0.01322094      -0.05089892       0.01213506
Ar      15.15634760       6.47241221       2.50691525      -0.01460575      -0.02255382      -0.01070915
