108
Lattice="17.35 0.0 0.0 0.0 17.35 0.0 0.0 0.0 17.35" Properties=species:S:1:pos:R:3:momenta:R:3 pbc="T T T"
Ar       0.57078105       9.19729976       6.99874020      -0.02539093      -0.02419128      -0.01619802
Ar       6.37454161       3.88673752       8.83178363      -0.05245541       0.03858665       0.01774909
Ar       7.78358151      15.99720905       6.63058254      -0.11805652       0.11110606      -0.02075251
Ar       2.30830250       3.68197551       9.82487026      -0.03656885      -0.00134613      -0.00414970
Ar       8.91171307       4.01020965      15.65608123      -0.07014721       0.06789672      -0.04890949
Ar       7.42955895       9.58307469      10.09682204       0.03182454       0.03895940      -0.01440024
Ar      13.69450810       3.31511265      17.14275391      -0.00569968       0.07499173       0.04268697
Ar      12.93673918       2.70223960       7.28135757       0.07741404      -0.01668668       0.10290823
Ar       8.46820325       6.39242607       8.17500556      -0.00408004       0.08848580      -0.05619363
Ar      12.84435930       6.09955501       3.60517892       0.08545083       0.10773090       0.03102628
Ar       1.57500622      12.10334410       9.30348777       0.04309680      -0.04681166      -0.01063496
Ar      16.50965499      14.83853539      10.82289232       0.14601995      -0.03200894      -0.06738866
Ar       3.86107960       9.14516877       4.21063387       0.11293085      -0.09667633       0.06037137
Ar       3.74675932       4.28254566       5.81891193      -0.05171492       0.00665538      -0.00515715
Ar       5.43692949       6.08506607      11.36546110       0.02695148       0.03135903      -0.13554468
Ar       6.65469749       4.23787330       1.07776376      -0.03475073      -0.04478778       0.06648159
Ar      16.10597709       0.54737235       1.55297884      -0.03760745       0.04880416       0.07658224
Ar       9.79245314       8.53234699       2.37610138      -0.07473873       0.07441232      -0.03155566
Ar       8.01326016       3.30708834      12.29125391      -0.01999568       0.04064239       0.04485334
Ar      17.29322801      10.84137183       3.41130342      -0.00415201       0.02125903       0.00472319
Ar      11.07803595      16.83973155       7.45140186      -0.03462945       0.02233221      -0.03918845
Ar       6.02634223      12.24768146       8.42915089       0.01104819      -0.00663394      -0.00679236
Ar       0.85520138      15.92079434      14.42850266       0.16550351      -0.01396279       0.03519275
Ar       6.00372159       9.07108426       1.48975195       0.01028985       0.00495824      -0.00746218
Ar      10.06873171       5.12456902       1.28689693      -0.08019925      -0.06293723      -0.09893872
Ar       5.26885273       3.86288138      14.60040889       0.00109144      -0.03459147      -0.03356679
Ar       8.09470304       0.83450720       1.04019536       0.07936829      -0.10663722       0.01283910
Ar       9.42248650      14.57241468      17.27116733       0.01536070      -0.05692575      -0.02462534
Ar      15.59140698      13.10896709       7.72544156       0.03691533      -0.01141994       0.01451660
Ar       7.34809112      13.79691135      11.14301449       0.01793370      -0.08813670       0.01645716
Ar       4.80330870       7.48661651      14.75620225       0.02147632      -0.02415406       0.04073029
Ar      13.85554769      15.94834381      12.80917235       0.07542119      -0.01018377      -0.14208449
Ar       7.44545299      10.09464143       5.90379710       0.03884419       0.03611848      -0.03998599
Ar      12.08086785       6.44323572       8.45944278      -0.09068457      -0.01441140       0.09801441
Ar      11.75139720       6.32502974      14.88270229       0.01143490      -0.00417616       0.05493245
Ar       8.34352986       7.45474726      15.88088866       0.00121708      -0.01890140      -0.01639856
Ar       0.75821906       6.59781415       4.65075388      -0.01294856       0.02658764      -0.02679548
Ar      10.72800615       0.39054468      12.00961726       0.02345055       0.01155815       0.07317879
Ar       7.77687850       0.08797138       9.95164053       0.07588045      -0.00885236       0.00138626
Ar       1.06505267       1.09389914      12.19365610       0.00329396       0.06903209      -0.01202660
Ar      14.53616318       3.19510791       3.49617870       0.10523045      -0.01418337      -0.05452333
Ar      10.38383408      15.92478019       3.06914347       0.02131914       0.00274312      -0.00650723
Ar       3.18018901      15.06945571      11.61381332      -0.01482487      -0.07162598       0.07500567
Ar       7.77429710      11.34942242      16.83929306      -0.03751708       0.08057683       0.00889274
Ar      14.83140804       8.54196689       4.97081232       0.02890016       0.00867312       0.00593970
Ar      14.50588280      16.76575807      15.95274363      -0.02333669       0.10880292      -0.00188662
Ar       3.21500456       9.56662803      11.94637330      -0.11338666      -0.06177723       0.04790974
Ar       2.76126104       5.38212438      17.24041584       0.02785015      -0.01417835       0.03772484
Ar       4.23664427       0.02601059      14.82690168      -0.00908269      -0.03776400      -0.05021253
Ar       4.87334220       1.59628577      11.79007736       0.03490294      -0.01535785      -0.02765697
Ar      16.01532103       4.06903749       9.81219317      -0.01371219      -0.02123898       0.06866136
Ar       1.73307129       5.53717841      13.46702362      -0.06838739       0.07257880       0.05485858
Ar       6.85083762       6.74262677       4.74452676      -0.04152242      -0.04352133      -0.00206587
Ar      14.33169785       9.57380239       8.23451562       0.00306651      -0.07727474       0.05501120
Ar       3.56559484      12.01121877       2.20968743       0.00081714       0.01716873       0.06146314
Ar       5.07919801       7.43859429       8.02821165       0.02097352       0.03233165       0.00281741
Ar       2.32707890       8.67430352       1.04601644       0.05884872       0.03859964       0.06879507
Ar       0.79332629       2.29931112      15.61645417      -0.01125597       0.04609145       0.04271146
Ar      15.63816616       7.57812388       1.63495014      -0.07787344       0.04119652      -0.11646590
Ar      10.68234905       8.76629037       5.89228851      -0.05617407      -0.04103515       0.03688436
Ar      14.49742044      11.71354785      11.52161862      -0.02598985       0.03523441      -0.03737866
Ar       1.81521895      15.76480533       4.37325267      -0.03125499       0.03687612       0.02077062
Ar       0.40086355       3.71623565       2.29159398      -0.13987692       0.01668917      -0.01440141
Ar      13.46096281      17.33175475       4.16371174      -0.01540476      -0.01187283       0.04419359
Ar       1.43373869       6.96902592       9.85012475      -0.01359157      -0.00745053      -0.02677622
Ar       9.76193684      12.75306758       8.36205682       0.07707790       0.05809331       0.05196961
Ar       5.00763919      17.03104156       4.06275176       0.01389388      -0.07853111      -0.10703945
Ar       7.24127384       2.04905889       5.72960870      -0.00762421       0.06888736       0.02056198
Ar       6.15868999      14.62988447       1.87099080       0.00276269      -0.10561206      -0.08742926
Ar      16.81196120      11.91506883      14.28340036      -0.07346631       0.02564021       0.04340721
Ar       4.15325889       1.11493861       7.93558071      -0.03191936      -0.03388161       0.02234962
Ar       9.73402714       3.02141793       9.07193694      -0.03533251       0.00628255       0.05392116
Ar      14.12044384       8.61003210      13.60999453       0.00699461       0.09074493      -0.01455376
Ar      11.87905985      13.37440638       5.40572773       0.02634550      -0.00742655      -0.06911805
Ar      11.38416451       2.09565195       2.40193334      -0.04666917       0.01890530      -0.01293913
Ar      12.82092192      14.01348564       9.83034500      -0.01230125       0.02102116       0.06607367
Ar       6.01062609      13.56332338       5.04922688      -0.05338752       0.01815737       0.03302938
Ar       4.04915744      12.28648648      15.92885733      -0.01159164      -0.09676278      -0.06669079
Ar       2.80873112      15.53750254       0.99549369      -0.07011187       0.09128266       0.07899580
Ar      12.91288750      14.05061752       0.64808660       0.07605254      -0.04570357       0.04193483
Ar      17.08251111      14.16288734      17.29787473       0.03951036       0.00861978       0.05974123
Ar       0.44178763       3.01465939       6.74475329       0.03954948      -0.05006839      -0.03771049
Ar      11.12561128       9.67544209       9.87778535      -0.06338070      -0.09227408      -0.07156030
Ar      16.96397392       9.23325216      11.23891871       0.01473032      -0.04462111       0.01970132
Ar      13.60171738      11.10486921       3.06439972       0.06910600      -0.00415111      -0.06578809
Ar       6.76030324      13.97643405      14.73381739      -0.02670419       0.04047456       0.03399456
Ar      16.09928435       5.59481186      15.74560815      -0.10854179       0.00596733      -0.05626555
Ar       1.98923400      12.34594270       5.83481298      -0.06907606      -0.05730221      -0.02815523
Ar       6.43496270      10.43829590      13.75362626      -0.02543932       0.09346637       0.07585879
Ar       7.92700377       0.51509043      14.20254362       0.07677183       0.08419004      -0.06188739
Ar      12.39168080       3.98871823      11.06101643       0.03191664      -0.02722953      -0.03679642
Ar      13.42689580      12.95740940      14.60758053      -0.04359687       0.05527285       0.01688653
Ar       2.58003426      15.33485557       8.07779618       0.09793034      -0.10343462       0.00587982
Ar      16.43726826      16.81152272       6.65712597      -0.04458080      -0.00433334      -0.08500915
Ar      14.91085376       2.66928668      13.01160914      -0.07372343       0.05406539      -0.03449895
Ar       9.85124802       4.28876545       5.83867683       0.02696372      -0.05394076       0.06271047
Ar      14.88924534       5.13190987       6.39336736      -0.00291505      -0.06769043      -0.04154982
Ar       0.50165865       8.73760956      15.41846947       0.05162047      -0.01690833      -0.02803317
Ar       9.06682753      12.07472120       3.05407483       0.01763305       0.00830227       0.05456279
Ar       3.31580407       1.79192528       1.15074435       0.10856410      -0.06722344       0.02235826
Ar      14.36715968       0.66968220       9.69632897      -0.03600176      -0.03272932      -0.01947872
Ar      10.91019747       0.00857927      16.38022916       0.02332289      -0.14029073      -0.02411852
Ar       9.88889106       6.64387160      12.07074413      -0.08123977       0.05300701       0.04705306
Ar      10.57697793      14.47672819      13.39053746       0.06106627      -0.01673825       0.01043936
Ar      10.65945251      10.66652249      13.41502938      -0.05280813       0.04004682      -0.08252779
Ar      15.70689359      14.06742580       4.23575965      -0.00950545       0.01604762      -0.05416472
Ar      15.51517929      10.95498833       0.28844726       0.08788931       0.06043856       0.01425145
Ar      12.19431064      10.31201946      17.18472380       0.06309996      -0.08938566       0.01998868
