108
Lattice="17.35 0.0 0.0 0.0 17.35 0.0 0.0 0.0 17.35" Properties=species:S:1:pos:R:3:momenta:R:3 pbc="T T T"
Ar       1.18560448      10.45698616       3.63761785       0.00715093       0.01115423      -0.02601528
Ar       3.46095562       0.04281182       8.79508388      -0.05731445       0.01386781      -0.10637363
Ar       4.81033626      12.34817890       9.88686697      -0.00786207       0.07292837       0.07928591
Ar      12.62939552       3.89709743       4.62654023       0.02319771      -0.01551208      -0.02892140
Ar       3.30480323      15.92358982      14.73368934       0.05187400      -0.07752091       0.04553650
Ar      12.26547359       8.60529003      14.03257586      -0.00459930       0.03727406       0.03375160
Ar       0.51023980       0.29828521       0.79448245      -0.00066133       0.04814860       0.10787206
Ar      15.79099299       4.42357273       7.80830405       0.02328965      -0.00513289       0.04392148
Ar      13.13233670       3.11794914      12.16184006       0.06107656      -0.03081784       0.01612512
Ar      13.59442526       7.67695856       6.79309575      -0.01523586       0.00858719      -0.04285499
Ar       3.11394517       9.56937393       8.30583905      -0.04407692       0.00379009       0.05076002
Ar      15.32337085      13.21653832       5.88878886       0.09138785       0.01686335       0.02920326
Ar       2.39044602       3.46846781       9.72252866      -0.09592304       0.04883774      -0.02819404
Ar       3.16672184       6.90703249       3.91749573      -0.02301995      -0.03100572      -0.01071527
Ar       6.00145545       1.58779150      11.44962729      -0.06017038      -0.04254370       0.01364799
Ar       4.81275790       8.77382643      16.46755526      -0.10048490       0.06035833       0.08160768
Ar      13.76588182       4.10243757       1.13336142      -0.12484336       0.06068229       0.04913508
Ar      15.44549570       1.79380419      15.86002539      -0.00587618       0.01735592       0.04363407
Ar       4.18699452       3.01026602       5.89181326       0.01194226      -0.04027284       0.01999551
Ar      12.45401434      13.39570003       3.10680167      -0.01664656       0.04571366       0.02702076
Ar       8.94620289       5.25337005       3.41568410      -0.01158134      -0.06353428       0.02805953
Ar       8.56825851      11.53245015       8.66142154       0.03737583      -0.02366209      -0.00497375
Ar       7.48175257       5.42154797      10.14193873       0.05709561      -0.00522932      -0.07412073
Ar      10.59376334       9.10977217      10.92902025       0.04596879       0.06553947       0.07808831
Ar       6.72452977       4.55298479      13.95553315      -0.12524123       0.05887595      -0.06789556
Ar       1.84896340       1.93920886      15.47363720       0.00664867      -0.04212201      -0.00594648
Ar      10.56968066      15.75159180       0.77133482       0.06751324      -0.01101764      -0.00460895
Ar       7.93043637       8.22377911       1.29470886      -0.07195317       0.11633921       0.02550599
Ar      14.07016478      15.08551557       9.13549478       0.04115847       0.08251804       0.00104447
Ar      10.53495785      14.21227352      12.40129868      -0.04048076      -0.01400455      -0.02263889
Ar       3.27165215      16.99725969       4.99478970      -0.00902826       0.07177463      -0.01490414
Ar      10.01774273       2.19328615       0.79953083      -0.00111435      -0.00777123      -0.05365145
Ar       6.02766995      11.58784641       6.04125152       0.01620680       0.01688704      -0.05895027
Ar      14.67975525       8.09616044       9.98972787       0.09025351      -0.02990396      -0.03766808
Ar       3.59807309       9.22694992      12.31353279      -0.02191793       0.01890038       0.02569225
Ar       9.16295020       9.84403526      15.68670570       0.05461681       0.03921412       0.07275067
Ar       3.25840307       4.84916461      13.41811777      -0.00193649      -0.04000271       0.04639086
Ar      10.11184497       3.30370280      14.69176610       0.01559325      -0.00262404      -0.08733225
Ar      13.08343812       1.57029823       7.98126881       0.03312548       0.00226694      -0.05637669
Ar       0.13978506      14.98172704      10.34468854      -0.05834446      -0.08426419      -0.02955795
Ar       4.20051108       0.02309864       0.76481652      -0.03592609      -0.00861337       0.02180772
Ar       3.62328996      15.10677200      11.49983069       0.02304693       0.09152597      -0.02927801
Ar       5.07653335      12.29365761      13.56158026       0.09267308      -0.03115983      -0.01858080
Ar      15.86115819       2.87379059       3.57370676       0.05824567      -0.00248586      -0.06993169
Ar      16.01532609      11.57289383      10.15828508       0.02548015      -0.09197293      -0.05876256
Ar      14.31333598      14.74201950      16.79517192      -0.06446075      -0.04272027      -0.01824443
Ar       8.61745376      11.45285498      12.67361766       0.06723874       0.08605472      -0.02615454
Ar       6.99684844       8.08446682      13.17919817      -0.00118850       0.04228096       0.03763808
Ar       1.15029073      12.34667785      12.42228062       0.06539873      -0.08387765       0.00090030
Ar       7.14545091      14.93753562       7.02926494      -0.05407319      -0.04094807      -0.00280608
Ar       6.60374602       8.57329019       8.10818661      -0.05524687       0.00221978       0.02215188
Ar      13.87439816       8.53599905      16.99075376       0.07673068       0.01835750      -0.08655254
Ar       1.82890182      10.99388812      15.36816306       0.01347622       0.02954415       0.04115772
Ar      15.92646531       9.06023003      13.38168446       0.05688281      -0.03406193       0.01063850
Ar       5.62876911       3.45815935       2.74599065       0.05268761       0.07354916       0.05834413
Ar       6.55805574       1.51077936       8.05380960      -0.02243832      -0.03592598       0.04132686
Ar       0.89562412       8.06710779       1.19017972      -0.02499656      -0.04154321       0.06278513
Ar      16.42825990       1.20221153      10.14516129       0.13759690       0.04910886       0.09336591
Ar       2.41297763       1.01108547      12.29239752      -0.04379863      -0.03710205       0.06978563
Ar      10.06371527      13.27787855       5.54428520      -0.06001643      -0.00960684       0.00962600
Ar      12.83261973      11.64531530      12.09325964      -0.04881445       0.01006604       0.05434079
Ar      12.40539424      11.67844885       8.34223976      -0.04364452       0.00951850       0.04825433
Ar      15.75806023      16.47940464       6.40420162      -0.02173289      -0.02808664       0.02991469
Ar      12.31704135       7.00136962       3.43004133       0.05235853      -0.00223702      -0.03833870
Ar       0.55541155       1.96251086       6.29802734       0.05479771      -0.06502698      -0.10137528
Ar      10.52378682      15.47866136       8.68651090      -0.02487962       0.06760993      -0.12138202
Ar       1.80926998       3.17568370       3.16523560      -0.05276820       0.13552947       0.00268992
Ar       9.84328629       2.23050249       6.47552084      -0.05463152      -0.00981876      -0.01028450
Ar       4.82370528      13.67460290       0.18399898       0.01496342      -0.06822522      -0.00613670
Ar      11.29824548       9.88401184       1.40776844      -0.01060510      -0.05054368       0.03278048
Ar       4.37138087       5.97345608       0.63767206      -0.08221156      -0.12198526       0.07672984
Ar      11.38912746       4.48124512       9.37515521      -0.07485819      -0.10334104       0.07091001
Ar      15.66970731      12.58263586      14.47358323       0.01837217       0.03889607       0.01801034
Ar      12.03383915      16.93416407       5.26083989       0.01866728       0.05266688      -0.01191002
Ar      10.91171930       6.05371657      16.92405960       0.04454733       0.00758782       0.07779705
Ar       0.75065824       6.77173141      11.08531730       0.00748872      -0.07775356      -0.08718848
Ar       7.70839423      12.78520550       2.39446659      -0.09451406       0.03764160       0.08032524
Ar      12.02771538       0.29261547      15.71205125      -0.00555505       0.03347276      -0.10221361
Ar       1.19759347      14.17777586       0.32681308       0.02021570       0.05815949      -0.11356085
Ar       3.36613869      13.40513821       3.62687563      -0.03395520      -0.01195960       0.02661660
Ar      15.96362379      10.91815521       1.32580047       0.05257010       0.00308619       0.04364947
Ar      10.23370679       5.98061506      12.40608369       0.02040829       0.02303528      -0.12448372
Ar       9.58513328       1.41924101       9.90248824       0.05155674      -0.04340472       0.00206701
Ar      16.50882057       6.65927290       3.84591858       0.01791347      -0.05123051       0.00440955
Ar       6.66959168       8.05548724       4.84804346       0.03556132       0.20524095      -0.01015506
Ar      11.57762834      12.83873522      16.19744043       0.10666481       0.04335425      -0.09377836
Ar      16.90813236       3.38191522      12.83881128       0.03688322       0.02562731      -0.00471956
Ar      15.67458929      14.90368929       2.87428811      -0.15456532      -0.01442092      -0.06632902
Ar       7.66248369       4.94763662      17.25713599       0.00471045      -0.01803870       0.04576055
Ar       6.55369521       1.54456205      15.89516313      -0.00682908       0.00489730      -0.06762768
Ar       7.38318542       4.88153257       6.56168517       0.00110417      -0.01195891       0.00138018
Ar       7.35193653      17.22568300       2.03689820      -0.00501985       0.03116816      -0.06521799
Ar       0.99423551       7.31778565      15.01840761      -0.04433673      -0.04654320       0.06461662
Ar       1.79657414      12.50745192       6.75991175      -0.04236685      -0.05745144      -0.05143853
Ar      17.02483060       4.94941420      17.30262640       0.01284088      -0.03951592      -0.06655041
Ar       2.58189144       6.07554471       7.50951051       0.01838361      -0.13448471      -0.07600109
Ar       7.26575065      14.72100581      11.08711692       0.07100106       0.13385249       0.02520686
Ar       9.83386742       9.81649850       4.72934636       0.01560759      -0.02598235       0.00981838
Ar       4.70134252      10.15844155       2.61501155       0.01787266       0.13812383      -0.00682764
Ar      13.66305074       0.21888283       2.03219665       0.08634766      -0.02992599       0.10027704
Ar      16.74446543      16.49849212      13.79647179      -0.06582338      -0.05957888       0.00995939
Ar       7.02517017      15.15383962      15.20842705      -0.00508797      -0.07794701      -0.02920043
Ar      14.97423161       5.72243477      14.14669097       0.02753332      -0.00958052       0.03958962
Ar       9.20778762       0.02810240      13.20465592      -0.03155392      -0.09540863       0.00668614
Ar      13.37928446      16.71830653      12.13936597      -0.00820437      -0.03530215       0.04534978
Ar      16.41300127       9.48105843       6.77559495      -0.00985041      -0.03799816       0.02991697
Ar      13.65163397      10.30086694       4.63477798       0.01949154      -0.05940665      -0.03500554
Ar       9.96226420       7.47041862       7.54482680      -0.05052883       0.04406426       0.02612182
