108
Lattice="17.35 0.0 0.0 0.0 17.35 0.0 0.0 0.0 17.35" Properties=species:S:1:pos:R:3:momenta:R:3 pbc="T T T"
Ar       1.81952682      14.46177779       6.08884458       0.08299078      -0.01993159       0.04179014
Ar       9.41346501      10.65905730       4.12848990      -0.03894566      -0.08670640      -0.02195084
Ar       6.19929489      11.07463909       2.45712943       0.10342216      -0.01750996       0.00359321
Ar      15.07314441       7.75179454       9.71342635       0.00073146      -0.05214937       0.03243366
Ar       6.92094338       2.63341885      14.07078517       0.05675871       0.05042089      -0.00568425
Ar       3.78058633       6.20869104       8.77411768      -0.01470371       0.10833988       0.08639495
Ar       0.11432426       5.27237362      13.86360476      -0.01635877       0.03075710      -0.06230462
Ar      15.10782368       4.01325002      11.11310249       0.01801934      -0.13648926       0.05438078
Ar       9.70606478       2.69691721       6.57199097      -0.07292039      -0.06801341       0.04211982
Ar      13.41764556       2.98476382       8.24336237      -0.09109447       0.02478568      -0.08822428
Ar      16.83180779      13.39101151       8.76174901      -0.09913088       0.05400971       0.00791731
Ar      11.61535749       3.22266965       0.45697103      -0.02245205      -0.07386122       0.05693726
Ar      10.73836631       9.18782852       0.90588782       0.05123315      -0.00355859       0.03532183
Ar       4.18519683       2.46038600       9.04968744       0.02010979      -0.08416037      -0.02387050
Ar       7.55750338       5.57731655       7.87528484       0.07461743       0.01562816      -0.00314354
Ar       4.58778485       0.18940484       2.05730323      -0.00673948       0.06338556      -0.02180717
Ar       0.48304129       1.73710149      -0.00882826       0.04191879       0.03181864      -0.07350652
Ar       7.95248424       4.48473937       3.74600970      -0.01178223      -0.06751611      -0.03283906
Ar       6.87799138       6.02926255      11.62569525      -0.02501558       0.11537992       0.01882229
Ar       2.54357836       6.36827694       4.75111629      -0.02364168      -0.00730969       0.01782765
Ar      12.21621157       2.05066624       4.01733608      -0.03823371      -0.01480441      -0.02679785
Ar       4.70344687      16.67858895       7.00748955      -0.01861986      -0.05949929       0.06467733
Ar       3.39373999       2.20201885      15.57663077       0.01277673       0.03377474       0.03242459
Ar       5.58647402       7.83968915       5.87183450      -0.02199464       0.07395963       0.02635869
Ar      10.99223919      15.69093148       4.21432496      -0.01816120       0.02341516      -0.08076917
Ar       6.05574322      16.55837718      14.53696434       0.06818903       0.04936076      -0.02345362
Ar       5.50508317       6.58078852      15.18141735      -0.07638975      -0.07821671      -0.06444545
Ar      11.54034766       2.87332222      14.14705467      -0.01971306      -0.02355765       0.06829881
Ar      12.81481855      13.73610867       9.20288198       0.08862328      -0.09013995      -0.06709573
Ar       3.28646034      13.14060147       9.39283239       0.07212516       0.03515102      -0.03560631
Ar       7.20839348       7.93330698       2.79373511      -0.01276932      -0.02168929       0.00526667
Ar      14.43452679       0.30418947       1.45325374      -0.06030140      -0.05100959       0.00810410
Ar      10.70068496       6.69882977       4.78213066      -0.01001336      -0.03640305       0.03946865
Ar      13.14035097       5.89151056       1.72085822      -0.01051319      -0.13969028       0.00704267
Ar      15.76984019       4.27049839       0.10558830      -0.06018965       0.03714921      -0.04174847
Ar       0.96923976       9.11173424      15.78077780      -0.08530907      -0.01446003      -0.09459368
Ar       1.10393636       2.83045289       6.45681256       0.10947699      -0.07048050       0.14185515
Ar       3.87145361       4.30602813      12.45618673      -0.00413927      -0.02277783      -0.07170153
Ar       5.29569613      15.92712848      10.69570984      -0.05498748       0.01414388       0.01774895
Ar       2.80998182       0.84596006      12.37961080       0.02240739       0.07907936       0.04704061
Ar      15.39588439       5.70076933       6.52005600      -0.02647756       0.04361863      -0.00579588
Ar      12.18822112       6.60973229       8.35493712      -0.01686651      -0.09079002       0.02901558
Ar       1.33296224      17.17809742       8.49876549       0.00722730       0.00451756      -0.11632915
Ar       6.57629384      10.10599285      15.93792218       0.06548202      -0.06157476       0.05272889
Ar       8.58384973       6.03950510      17.31578887      -0.00836851       0.03531860      -0.01118954
Ar       2.12429214       5.30493933      16.76038853      -0.02120548      -0.06936033      -0.04909710
Ar       3.81889817       9.52292669      13.49664700       0.02612398       0.00961510       0.16128778
Ar       2.53018064       2.97006412       2.44896325      -0.05367052      -0.02169428      -0.01599469
Ar       4.51480096      12.88089387      13.60990348       0.07742965       0.01160816       0.09090203
Ar       0.70990707       4.05904369       9.60711186       0.02233854       0.00860128       0.02918640
Ar      12.69171474       0.67351873      11.44555529      -0.07100726      -0.01790735      -0.03297524
Ar       1.47817751       7.56461734      11.14337744      -0.02846996      -0.05488928      -0.00059856
Ar       5.69752333       4.79831655       1.15218957       0.03318641       0.05821083       0.05522129
Ar       7.81890260       9.85094927      12.96379044       0.04538873      -0.04941973      -0.02066372
Ar       2.50465044      10.23623483       3.68357707      -0.01280012       0.00522732      -0.09234818
Ar       1.25931531       8.83452539       7.71691417      -0.03109575      -0.02562281       0.10251914
Ar       3.14033936      11.58880925      -0.00240265      -0.03636936       0.05329033      -0.07141458
Ar       2.83052395      15.77067635      16.02224362      -0.02830217       0.01187239      -0.00989681
Ar      14.73301862       8.80399958       3.83367427      -0.03993791      -0.02744606       0.02494476
Ar       8.51332753       9.08956840       8.21789455      -0.00412057       0.04391362       0.04511327
Ar      12.95052096      16.85920917      15.68795571       0.05073835      -0.06114724       0.05476609
Ar       5.32923095      14.46111804       4.01572790       0.04027422      -0.07190011       0.03149341
Ar       4.46564285       3.71159175       5.57520312       0.03423036      -0.00951608      -0.00675537
Ar      15.88585034       2.91715051       3.51600634      -0.01162258      -0.01371493      -0.00303484
Ar      16.82989540      11.98728671       4.34571324       0.00851486       0.02842066       0.00308548
Ar       7.60995118      12.42840660       6.87656886       0.01884225       0.00185822       0.03542899
Ar       5.76982194      14.04164554       0.50084882      -0.11802505       0.01455143      -0.03711956
Ar      10.07688562      11.35043333      10.31636681      -0.06014288       0.10371109      -0.05326346
Ar      12.84365280      12.18991989       3.17606472      -0.08063125       0.08642723      -0.01445336
Ar      12.25075057      11.46008497      14.59376624       0.00021362       0.00393103       0.03624257
Ar       8.26199929      16.24992108       7.07651697       0.09125013       0.00615973      -0.01271653
Ar       8.80826368       1.98535705      10.25555704       0.02571459       0.14324093      -0.15328595
Ar      13.84008283      10.66260291       8.12216125      -0.01554037       0.00519012       0.01124605
Ar      14.45899877      14.59442491       5.12788281       0.09255087       0.02672010       0.04531079
Ar       6.98631623       1.31731206       4.58336297       0.02813659      -0.14035907       0.12075620
Ar       8.76585362      15.67689906      10.55192095      -0.19585777       0.08474127      -0.00392452
Ar       8.93510052      12.32131463       0.74015186       0.05272528      -0.00441052      -0.00192050
Ar      16.19990478       1.73360922      14.12247677      -0.06819529       0.11769326      -0.04792947
Ar      16.84327140      11.05894968       0.86258159       0.04238594      -0.03152364       0.09408836
Ar       0.81315230       0.00296786       3.85951155       0.02289533      -0.00918972      -0.05350180
Ar      16.60410028      15.72478239      16.74695029       0.05339134       0.11806815      -0.04070651
Ar      15.76408612       0.86311911       6.28515313       0.07289170       0.01060363      -0.07052800
Ar       9.58335967      17.10687974      13.87036993      -0.02237527       0.02192412       0.00548841
Ar       1.75816115      14.37918099      12.27556347       0.02398580      -0.06297982       0.01854246
Ar      12.03138054       8.64373999      11.57585545       0.06657986       0.00555403      -0.10950035
Ar       4.98963114       9.46936550       9.45010223      -0.01245665      -0.11491399       0.02594007
Ar      15.91246235       8.78082067      13.05175940      -0.02803308      -0.03366731       0.03324187
Ar       4.11088567      11.64356648       6.22283973       0.07368834       0.03985133      -0.04460038
Ar      10.30822579       8.00910835      14.80925272      -0.06537914       0.01433801      -0.06824207
Ar       8.20721990      13.25917922      13.72384973       0.04671447       0.00904079      -0.01692629
Ar      13.50483758       6.28713027      14.99523953       0.03778385      -0.07920020       0.04161737
Ar      14.31551347       9.07997331      16.95613431      -0.03267896      -0.00666396       0.13650972
Ar      15.37059705      15.56924142      12.90084706       0.03885524      -0.02991657      -0.04660028
Ar      15.23218261      16.57954036       9.51142371      -0.03574661       0.02739924      -0.08652159
Ar       0.94598841      10.98034525      11.23434146       0.02676533      -0.00463725       0.03622856
Ar      11.24921264      12.59427617       6.25968607       0.02365550       0.10729436       0.02071678
Ar      14.66703141      12.31088413      11.66441260      -0.11637583       0.06859912       0.01110071
Ar       4.18617389       8.04128071       0.92093119      -0.02270473       0.01579129       0.00417312
Ar      10.15282681      15.11905419      16.75780412       0.03770126       0.00219893       0.01669096
Ar       0.96557145      14.19495218       2.04760394      -0.01526882      -0.01818649       0.00049288
Ar      11.64216908      16.98249490       8.25302972      -0.09979644       0.05047169       0.06469031
Ar       7.99827907       1.56458379      17.28795703       0.04934882       0.07572505      -0.07267020
Ar      10.96156585       5.23169220      11.43768056       0.02236817      -0.03684900      -0.08380233
Ar       6.62962640      12.38858673      10.28471520       0.08750512       0.02529494       0.02470759
Ar      11.68644693      14.66721996      12.35438736      -0.01060244      -0.01309221       0.00528197
Ar      13.59153518      13.66712665      17.30804551       0.00382626       0.00986977       0.01216624
Ar       0.27607245      12.72947343      14.82119254      -0.00431547      -0.01584575      -0.02539898
Ar       0.68411475       7.75014937       2.07215203       0.03444991       0.06533040      -0.01750284
