108
Lattice="17.35 0.0 0.0 0.0 17.35 0.0 0.0 0.0 17.35" Properties=species:S:1:pos:R:3:momenta:R:3 pbc="T T T"
Ar      16.64636345      10.79438080       3.30090339       0.05625475       0.09028863      -0.07425289
Ar       3.96173141       1.69293836       8.29194672       0.07544085       0.04746388      -0.03717351
Ar       7.23191507      17.32034195       6.87190510      -0.08520129      -0.09420380      -0.03136460
Ar      14.61046301       0.52920639       4.77899608      -0.02709546      -0.02496984      -0.05733092
Ar       7.41750665       2.27647179      13.69207380       0.03417358      -0.07992311      -0.05906406
Ar      10.45031123       9.60112776      13.50862479      -0.00999404       0.00759020       0.02061743
Ar      14.47566828       3.68856248       0.97749668      -0.10086464       0.08767882      -0.00119167
Ar      14.36178273       1.63367699       8.44283056      -0.12866218       0.09446313       0.04946713
Ar       9.24011122       7.10285407       8.56811647      -0.05834745      -0.02216751      -0.04597967
Ar      16.62613080       5.23824112       4.79872941      -0.00226201      -0.01874391       0.01802733
Ar       2.28834563      11.31312358       7.12535229       0.01129518      -0.07355523       0.03309047
Ar      16.10949380      15.32681875       8.25075376      -0.03135582       0.05489904      -0.05970474
Ar       5.30177966       8.41964691       7.26026042      -0.05858758       0.08006674      -0.02538032
Ar      16.29163961       8.41174491       7.75805054       0.00852519       0.08207984       0.09167592
Ar       4.06377111       6.56131812       9.84122025      -0.05697473       0.02572874       0.08616438
Ar       7.43642281       7.26339516       1.43875481      -0.11719936       0.04035567      -0.04161824
Ar      11.40496820       1.56174186       2.05000388      -0.06129237       0.06723577       0.00788958
Ar      12.74159758      10.44143088       3.04227470       0.02966846       0.01446684       0.06826744
Ar       6.31059956       4.74440108       7.59186353      -0.00659988      -0.08353923       0.02306231
Ar      12.64463792      13.67049292       1.35084609      -0.00734712      -0.07428505      -0.06075664
Ar      11.46939289       0.60635439       6.34864495       0.03130935      -0.06626977       0.00093036
Ar       7.30223922       9.20151457      11.19772075       0.00000428      -0.07008109       0.03422431
Ar       0.22916291      10.62265154      14.28099708       0.01766821       0.03614659       0.03467694
Ar       8.57671190       7.39351668       5.32338736      -0.02037077       0.00393263      -0.10145958
Ar       8.43358045       4.93478038      16.01768912      -0.02539548       0.03025416       0.11750355
Ar       3.37992887       3.67738625      14.47692699      -0.00813246       0.01229161      -0.02392343
Ar       8.73024852       1.49969939      17.29337844       0.07680664      -0.03180841      -0.00197808
Ar       9.35358877      10.07446499       2.09344499       0.03804281       0.05070814      -0.03369867
Ar      12.59863984      15.04811800       8.94697513      -0.07703867       0.06189969       0.09165112
Ar       9.86571380      12.57721092      10.75426365       0.02246250       0.14394995      -0.05736591
Ar       5.41004991       6.59695819      12.98156639      -0.05896427       0.03627836       0.02217321
Ar      14.83145697      13.77712857      15.42262240       0.03069750       0.01224293      -0.05725566
Ar       8.74092641      10.64582758       7.91037194       0.04587649       0.02717661       0.00176706
Ar      12.02472313       4.70566255       9.76915257       0.12940971       0.00470542       0.04998878
Ar      16.57750447       7.11028402       1.56549324       0.07274882       0.03808227       0.03834892
Ar       7.70851819       8.12752086      14.90509885      -0.03112436       0.07083141       0.01094205
Ar       1.85616146       7.48855461      14.58012188       0.01785635      -0.06730384      -0.09064572
Ar      11.20262872       2.27639696      12.45327051      -0.07310415      -0.02011601      -0.01676117
Ar       9.63930638      16.59898000      10.23266173      -0.03115994       0.07814809       0.02541426
Ar       2.87022047      15.45917379       9.60720840       0.09234907      -0.09439881       0.06202028
Ar       2.42281537       4.51139201       1.04627020       0.02252099       0.06239986      -0.02888279
Ar       5.97668580      17.09596605       1.23664015      -0.06997987       0.08755053       0.02528394
Ar       6.68437600      14.71441391       9.94824827      -0.02396769       0.03001547       0.05534676
Ar       1.79421751       8.44387104       4.02838887       0.02037269       0.07242582       0.09476292
Ar       1.72472880       9.33624844      10.53388039       0.14406079      -0.00166533       0.01986684
Ar      16.30225584      16.84056982      17.24275818      -0.03753579      -0.01277171       0.03825218
Ar       3.79407613      10.88461832      14.00003834       0.05210344      -0.03077654       0.03847281
Ar       4.35776917       7.17715306      16.77720154       0.01041108      -0.08283638      -0.06117175
Ar       3.98067635      14.04453191      12.42101325       0.04621080      -0.07140334       0.02730681
Ar       5.37272876       0.46141605      11.29047398      -0.01122391      -0.00712610      -0.08983072
Ar       4.77718977      11.61749312       9.93975578       0.06283515       0.06430166       0.11322937
Ar       2.47344537       0.44770497      13.30940407       0.02770383      -0.08206985       0.12371134
Ar       4.81099033       6.14556564       3.53404283       0.02726537      -0.04882400       0.02549104
Ar      11.37632732       9.27216922      10.12746050       0.09386725      -0.06521715      -0.07067573
Ar       1.74581306      16.12147684       2.45707409       0.06125760       0.03759745      -0.02355463
Ar       2.64403437       4.59221644       5.76172636      -0.03603197      -0.05995331      -0.04367573
Ar       1.94773157      10.12381163       0.24035219      -0.10936817      -0.06503171      -0.03797332
Ar      17.31694868      14.80293135      13.06043364       0.08517067      -0.02089147       0.01591899
Ar      17.00677243       2.87467124      15.86862204       0.03124272       0.05586702      -0.08620911
Ar      12.29172074      10.86331291       6.81485985      -0.03600615      -0.01388566      -0.00234896
Ar      16.22966209      12.48197150      10.89071577      -0.05869200      -0.03540938      -0.02284118
Ar       0.08226304       2.30131246       6.94016176       0.01177354       0.00836557      -0.00665992
Ar       0.34689004       2.20772783       2.56144786      -0.00473357      -0.00068680       0.09423088
Ar      13.34068643       3.81676009       5.14280752       0.02415579       0.00057377      -0.11213895
Ar       1.51923762       4.42391221      10.96089569      -0.12607077       0.03722690      -0.03310974
Ar       9.33653657      14.59659781       7.37471656      -0.08803560      -0.06812119      -0.02042177
Ar       3.32898680       1.09761692       4.79891052       0.01720152       0.01036618       0.05370444
Ar       7.81615737       1.82359130       3.50932947      -0.00379038       0.05343769       0.01205733
Ar       4.14385431      13.65142539       0.05459828      -0.02279679      -0.00969597       0.02853323
Ar      14.75780486       9.67723301       0.05391430      -0.00763606      -0.04078060       0.05267516
Ar       6.12384054       4.10557987       0.98959045       0.03016283      -0.08982911       0.02896583
Ar       9.66688663       3.67890083       6.24232493       0.06426984      -0.06352485       0.12145807
Ar      13.92988243      10.07727053      13.03113299      -0.01331070      -0.02204387      -0.06061354
Ar      12.63574936      14.04662293       5.38768490       0.04398008       0.00101015      -0.03842768
Ar      10.38482518       4.93251181       2.54055408      -0.02439290       0.03128150       0.02572574
Ar      13.39259788      16.85437880      11.91261620      -0.04279794       0.07808088       0.01023463
Ar       7.05560647      13.32513307       2.13821410       0.06818399       0.03935652      -0.03175723
Ar       6.96172734      12.45624678      13.00083053      -0.02861626      -0.16819332      -0.01640683
Ar       1.94837967      15.75368376      15.76252779      -0.02271610      -0.01295801       0.06005781
Ar       9.21599660      15.60958733       3.57307470       0.00431429       0.01186488      -0.01908377
Ar       0.10196934      13.47454486       0.44667373      -0.08487701       0.04693095       0.08755255
Ar      15.60041055       5.04722441       8.56241048      -0.02198167      -0.06418273      -0.10273211
Ar      10.04795701       5.92118240      12.82181221       0.01274800      -0.00031626       0.01233860
Ar      16.02172619       7.38002171      11.93441515      -0.02567826       0.07536982       0.01495412
Ar       9.08607045      12.13374149       4.72688504       0.05054052      -0.03656442      -0.02899731
Ar       8.68072447      13.23746730      16.12820289       0.02538605      -0.05171258      -0.02605681
Ar      15.23140365       3.05757260      12.05294612       0.02104490      -0.00073057      -0.01382957
Ar      15.64657771      14.62963428       3.40308658       0.09041002      -0.09069266      -0.06415224
Ar       5.86777743       9.50814227       3.69360761      -0.01380729      -0.06810040      -0.01932560
Ar       6.11276426      16.21659018      15.47901717      -0.06123809       0.03251728      -0.01722123
Ar       8.31752244       3.13365481       9.89090201       0.03989174      -0.07584361      -0.00614693
Ar      11.65856488      11.15878178      16.25677505      -0.07842175       0.05018501      -0.01397409
Ar       5.07703006      15.50136814       4.61247173       0.09747186       0.02353152      -0.04889627
Ar       1.66975594      15.33243593       6.13537028      -0.00145265      -0.02008455       0.07297502
Ar      13.21223520       2.14699179      15.28317298      -0.03931323       0.04839141      -0.02306366
Ar      12.59618491       6.89530988       7.07741157      -0.07999975       0.01441855      -0.01797915
Ar       5.59953432      12.88911783       6.66592413       0.01764839       0.09783011       0.09201265
Ar       6.02960544      10.53245205      17.26853963       0.06734282      -0.00234074      -0.05042504
Ar       2.82246065      12.11495861       3.18221398      -0.00668020       0.07779119       0.06089850
Ar       2.75342107       1.32377905      17.27836147      -0.06556471      -0.07711859      -0.01738511
Ar       0.04309619       0.46187560      10.47498012       0.03906417      -0.00503996       0.02343955
Ar      11.36390545      16.10010521      16.87237807       0.04334405       0.07288405      -0.06681627
Ar      13.54472438       6.97772422      14.84696842      -0.00488830      -0.02571948      -0.01699889
Ar       9.63768342      16.37324206      13.78413291       0.01849658       0.00127013      -0.06266791
Ar      12.72091526      13.31756772      12.76346724      -0.02995576      -0.03551469      -0.05893904
Ar      15.69554287      12.01697494       6.92779026      -0.00786167       0.04965176       0.05943559
Ar      13.15093761       6.72772692       2.54350046      -0.00625871      -0.07673998       0.00402476
Ar      10.99646833       7.17265887      17.01197361       0.10971263      -0.04569634      -0.04252422
