108
Lattice="17.35 0.0 0.0 0.0 17.35 0.0 0.0 0.0 17.35" Properties=species:S:1:pos:R:3:momenta:R:3 pbc="T T T"
Ar      16.96415654      10.73708150       1.32399818       0.05469537      -0.06537107       0.03334552
Ar       2.42388583      17.18805901      10.94974313      -0.02739008       0.02470134       0.03419853
Ar       2.38091393      13.12282585       9.54766962       0.01917787       0.00412283       0.07246532
Ar      13.39232265       1.84280939       6.39511861       0.04645723      -0.02399580      -0.00839648
Ar       3.10614074       1.14705392      13.81668485       0.05322497      -0.01913198      -0.00898596
Ar      11.97083099       9.04624720      13.00798541       0.04443034      -0.03367821      -0.10935386
Ar      15.27197092       4.43168451       1.35164012       0.03612826      -0.01696447       0.09802812
Ar      13.52959252       1.26780754      10.34227342      -0.01118121       0.02785937       0.02168155
Ar       8.16929510       5.52378720      11.98894276      -0.00880111       0.00068210       0.01334664
Ar      16.05145023       4.45261117       6.66047410       0.02671160      -0.07274092       0.13384076
Ar       2.27273841      12.21041171       6.40742431       0.03492649      -0.00512972      -0.07073501
Ar      17.14711693      15.39540963       7.81209074       0.09561731      -0.04899450      -0.02256985
Ar       3.66159534       9.49169508       8.45512813      -0.06632662      -0.06763395      -0.03011790
Ar       2.50010414       8.52594659       3.71858304       0.09555432      -0.02828515       0.03698342
Ar       4.81846170       4.43864171      10.15735391       0.06930829       0.00664719       0.02050658
Ar       8.49673490       6.95278615       1.11670664      -0.05351456      -0.00847763      -0.01493312
Ar      13.43073723       1.43400392       2.71746529       0.02209032       0.02804999      -0.07088064
Ar      16.19084819      17.16253291       0.72120511       0.04353328       0.08739656       0.09637219
Ar       6.10502843       5.97137577       3.34896664      -0.02350030      -0.01956352      -0.03438173
Ar      13.14215365      11.13559817       0.95617828      -0.00088252       0.03912442      -0.09219354
Ar      10.10167777       2.37427412       4.76880966      -0.04531675       0.09137979      -0.05816811
Ar       9.30669186      10.60685923       7.01223647      -0.04014916       0.05233333       0.00580860
Ar       5.95569015       8.10198422      11.52838112       0.04622464      -0.05349713      -0.00907441
Ar       6.98837012       7.07180321       8.18454770      -0.04128089      -0.06915814       0.01581985
Ar       8.69328299       3.04302311      16.79897827      -0.00661911       0.07702862      -0.03480740
Ar       1.22223672       4.47185092       0.15732244      -0.04499868       0.02174827       0.00106994
Ar      10.20495711       0.18053304       1.61536548      -0.06430920       0.00141983       0.04629925
Ar      12.57382699       7.80824723       1.40256031       0.00039053      -0.05725370      -0.00739609
Ar      13.21541888      15.02501437       9.02521022       0.03152981       0.01209770       0.07464347
Ar      11.52693163      12.78922347      11.44535283      -0.05909515       0.02455970      -0.06625921
Ar       3.61948894       2.28842531       7.50599079       0.11459445       0.01514462      -0.03636325
Ar      13.08573555      15.70354015       0.03297890      -0.07882399      -0.01040989      -0.13179381
Ar       5.92932312      11.34156684       5.25320011      -0.03681460      -0.02706499       0.09029473
Ar      12.20532746       5.34138832      11.32907980      -0.03908789       0.01881386      -0.02501681
Ar       1.14237920       7.60198698      14.92152814       0.03065056       0.06283152      -0.07117773
Ar       7.93180213       7.14660470      15.09913281       0.00131031      -0.02433451       0.03245399
Ar       2.51647565       7.75600583      11.22150455       0.09708367      -0.01002458      -0.01304126
Ar      10.65774200       2.70018145      13.21803956       0.05834593       0.07498758      -0.03143289
Ar      10.59268087       0.50006089       8.19121131      -0.07935961       0.00817734       0.01507296
Ar      16.05746108      15.52995664      11.09620597      -0.03577996      -0.00961860      -0.01333449
Ar       1.98578415       1.27312635      17.18658888      -0.10253693       0.05497333       0.05114835
Ar       4.05661717      14.91536598      13.84126151       0.01621827      -0.10877946       0.01849685
Ar       7.75700122      14.91492725      11.63903619       0.01424290      -0.04160196       0.01819277
Ar       1.38375576       4.54163415       4.29206329       0.01759007       0.00621434       0.06898940
Ar      17.09271313      10.93147846       9.74679877      -0.01764652       0.08164598      -0.09838870
Ar      14.63950127      14.29533764       3.04939832      -0.04137008       0.00558905       0.03218203
Ar       8.46030669      10.86695097      11.08781535      -0.02379123       0.19118849       0.01202583
Ar       4.77794800       5.88885229      14.85121957       0.00453874       0.00437002       0.03858471
Ar       1.09293545      13.06995505      13.01567735      -0.04332523      -0.05313865       0.08972935
Ar       5.98750027      17.12545746       9.54692177       0.11018891      -0.03723689       0.07706814
Ar       4.64592187      11.79953323      12.21935314      -0.00992056       0.02630456       0.04350039
Ar      15.15476614       5.79694895      15.07339584      -0.00798093      -0.05867734       0.01644875
Ar       5.35352495       9.56345990      14.77956266      -0.05557996       0.07199987      -0.04852567
Ar      16.17550393       8.24284352      12.10763500      -0.08195113       0.04718348      -0.02785998
Ar       4.40993170      16.04558039       3.43422709       0.02037653       0.04300037       0.02276203
Ar       3.68445235       6.15044208       6.65372818      -0.03567601       0.03131863       0.00851630
Ar       2.64372063      10.79354186      16.28974626      -0.13557335      -0.08910827       0.05248839
Ar      13.31754217       0.33804419      13.79012334      -0.04132516      -0.05398870       0.02749331
Ar      17.13654759       2.41677473      14.46984026       0.04247538      -0.10356279      -0.03072536
Ar      11.60112938      12.20647342       4.42466106       0.02144874       0.02435550      -0.05193338
Ar      13.40990360      11.67768816       8.02362159       0.00591601       0.01653829      -0.00068740
Ar      13.82371184       6.44246061       8.38898396      -0.02409545      -0.02485714       0.04415330
Ar      16.97923608       1.47208202       9.21098088      -0.08865696      -0.06882617       0.00591278
Ar      12.60242972       5.62695416       4.89422368      -0.02691073      -0.08812784      -0.04066326
Ar       0.77050864       5.20311059       9.26635926       0.03742354       0.02623439      -0.09617952
Ar       9.50215995      14.11009288       8.30882738       0.10198562      -0.06855225      -0.01075362
Ar       3.74402587       2.19215391       3.28972618       0.00746585      -0.05730209      -0.07418778
Ar       7.37459047      17.28510234       6.12615315       0.10249121       0.00327065      -0.00343359
Ar       5.53506323      14.09231103      17.30990031       0.01678170      -0.03404581      -0.05546389
Ar      14.96656584       9.58472302      15.56745315       0.05190386       0.02236087      -0.00440491
Ar       6.99540024       2.07527530       3.17054566      -0.08297564       0.09654012      -0.01808583
Ar      10.44962426       4.51670912       8.01963448      -0.02631264       0.04483747       0.02553548
Ar      14.89292607      12.84338073      13.06943549      -0.04936113       0.01101192      -0.06496350
Ar      11.83996386      15.90648700       4.90814322       0.01445378      -0.04490693      -0.08079831
Ar      11.44648835       4.41301847       1.81053600      -0.04483249       0.03636318      -0.02054905
Ar      15.63784671       4.51207729      11.36085472      -0.07139597       0.05688630      -0.05702351
Ar       6.64370604      10.46574854       0.57235119       0.00142633       0.02195948       0.00686307
Ar      11.71829494      13.31357059      14.77994693      -0.11430231      -0.01517322       0.10512605
Ar       1.15534700      14.07851440      16.94162038       0.05361943      -0.02935140      -0.02288936
Ar       8.69141033      14.25272853       4.65475749       0.05943166       0.04893399      -0.00135415
Ar      15.23809962      13.35907504      16.53273028      -0.04403697       0.06099599       0.05556237
Ar      10.59530327       8.26481021       9.56554654       0.03494006       0.00217400      -0.01718900
Ar       8.36569418       2.36022781      10.16405427       0.04242078      -0.00330243      -0.05081068
Ar      17.28288586       7.43330659       0.67152681      -0.03696015      -0.02828414      -0.10661425
Ar      10.04879622       9.72558484       2.44490599      -0.00964519       0.03577188      -0.03687548
Ar       7.22587133      12.86930594      14.49409315       0.01383536       0.01336354      -0.05896615
Ar       2.11670936       4.38799966      12.66596595       0.01135489      -0.01028854       0.13555184
Ar       1.11922830      14.93156956       2.94238453       0.02277975       0.01530713      -0.05777045
Ar       8.94831652       6.84283368       5.11897542      -0.00072307      -0.03999694      -0.08008335
Ar       5.34220988       0.28553146      17.08425524       0.00360281       0.03774083      -0.03427656
Ar       7.03390875       3.67472893       6.76982943      -0.09505397       0.05929160       0.07114810
Ar       9.38698303      13.83653667       0.65064847       0.03158444      -0.07062615       0.05099327
Ar       3.91816278       7.76441615       0.50198456       0.00289490      -0.05882165       0.01561507
Ar       3.31679702      15.63947960       6.69216419      -0.06116920       0.00894026      -0.04123355
Ar      12.81464322       2.91142874      16.17337349       0.10367241       0.01572775      -0.04998898
Ar      16.99550413       7.90938805       7.81664043       0.09735050       0.05704873       0.08135359
Ar       6.10556143      13.70272207       8.64371037      -0.02665247      -0.13478989       0.02439092
Ar       9.66584876      10.47276192      15.83102258      -0.00955454      -0.05396066      -0.00924771
Ar       3.13233917      11.94061508       2.13420296       0.04582989      -0.06796160      -0.07210092
Ar       0.13216537       0.72134224       5.21836604       0.09778432       0.06179307       0.09634520
Ar      16.54706022      16.14352700      14.56243816       0.02678677      -0.01808426       0.01807796
Ar       9.49320948      16.38032499      15.00607449      -0.04546113      -0.00894273       0.00080589
Ar      11.80146234       6.58614686      15.78043264      -0.01408289      -0.02290900       0.03378185
Ar       7.59591107       1.27247957      13.24738458       0.00739893      -0.08198127       0.04730287
Ar      10.79038200      16.45602950      11.59109517      -0.04438725       0.07737821       0.05692546
Ar      15.95653528      10.76567252       5.32761985      -0.01896808       0.05455118       0.11253850
Ar      15.70019005       7.21851238       4.32620155      -0.04272630       0.02343361       0.05379867
Ar      12.01212305       8.77837259       5.99807867       0.07397310       0.07281063      -0.07719881
