108
Lattice="17.35 0.0 0.0 0.0 17.35 0.0 0.0 0.0 17.35" Properties=species:S:1:pos:R:3:momenta:R:3 pbc="T T T"
Ar       4.73862992      12.39859005       6.47791112      -0.06283095      -0.03797668      -0.00939114
Ar       5.82245940       5.14526396       7.26305054       0.00021740       0.01932284      -0.03280528
Ar       9.82000026      12.02134347       7.09778174       0.11864425       0.01063621       0.05944655
Ar       3.51688640       2.55609150       8.38607754      -0.00839093      -0.13650810      -0.02647807
Ar       7.37183390       6.39029178      16.47124879       0.01946551       0.10523561      -0.08678254
Ar       7.08929839       7.76918799      10.55960417       0.01599367       0.08488311      -0.03774526
Ar      14.47294242       2.71796506      15.56925267      -0.08519296       0.11401327       0.04090057
Ar      15.21764322       4.11637877       6.61978749       0.04212954       0.11103366       0.03008358
Ar       9.24135767       5.76398956       6.20965593      -0.03441988      -0.01649742      -0.00051940
Ar      12.50772943       5.05088679       4.60119718      -0.02211529      -0.06494110      -0.03657312
Ar       2.25199026      13.15509526       8.67654198      -0.10238773      -0.04863193       0.01107703
Ar      15.12167236      15.42397386      10.54163327      -0.06291576       0.00859805      -0.02931001
Ar       4.66337356       9.86462998       3.83989831       0.00506674      -0.02255557       0.02970344
Ar       4.69947245       3.15343801       4.71264346      -0.03429847      -0.01671916       0.01460187
Ar       3.00828914       5.89580500      10.17737192       0.03178941      -0.10857229       0.03678529
Ar       4.42809299       3.67435205       1.47395571       0.00186736       0.03508519      -0.07331510
Ar       0.44393798       3.27411497       0.55095875      -0.00722952       0.01603935       0.04342687
Ar       9.85273647       6.50495087       2.49840465       0.01790992      -0.02712534       0.02644543
Ar       7.06514054       4.99362846      13.16396081       0.10291212      -0.03501813      -0.04202281
Ar       1.35225481       9.59115927       5.42824043      -0.07797151      -0.05157188       0.13640973
Ar      12.02388298       0.07333191       3.86302858      -0.04574377       0.00258088       0.11652738
Ar       7.50594322      14.26245404       7.91186446      -0.02270697      -0.01978943       0.02152055
Ar       1.89682453      16.07733149      11.72170167       0.02174569       0.00400964       0.05895569
Ar       4.34154197       8.43987543      17.11958272       0.03310830       0.09680419      -0.08424328
Ar      11.60100320       2.95012334       1.59785789      -0.02820128       0.12403500      -0.08603166
Ar       6.15260662       1.60801173      14.82466380      -0.04608989      -0.05869321       0.08427371
Ar       8.32855061       2.22083346       0.58885382       0.05656558      -0.08515382      -0.11814048
Ar      10.45124833      15.65597208      13.38140972      -0.03323786       0.00971728       0.07008869
Ar      16.36557970      12.78836557       7.64383396       0.05825449       0.08190189       0.03938419
Ar       7.70523206      15.37208645      11.47170622       0.03627760       0.05485854      -0.01138508
Ar       3.74124337       4.66421818      15.38469995       0.05514180      -0.03044045      -0.07795446
Ar      13.90608638      16.54500421      14.73262840       0.04492594       0.01639864      -0.02059817
Ar       7.38204789       9.48614442       6.69940113      -0.00888045      -0.04817513      -0.02522039
Ar      12.55372868       5.65319371       8.16539857       0.01567349      -0.00672696      -0.07570169
Ar      14.02320364       6.22641204      17.24132871      -0.02844269       0.09269743      -0.03978432
Ar      10.44001051       8.27762500      17.18170580      -0.00628173       0.11551175       0.12048004
Ar       1.26951129       5.95920617       6.82329630       0.01405245      -0.05379189       0.05036400
Ar       9.52066258       1.91346065      12.24164354       0.03655317       0.01428063       0.03555034
Ar       8.18675112       1.09220362       8.50226543       0.06754565      -0.09499970       0.02081722
Ar      17.23728460       2.41326389      10.27711777       0.06735851      -0.10334482      -0.01534079
Ar      16.74611970       6.45015728       2.47286398      -0.02788545       0.00311784      -0.05864511
Ar      10.95104669      13.59822912       4.03136296       0.06167345       0.00346301       0.05615639
Ar       4.74709240      16.04796876       9.18823162      -0.02556481      -0.02117577       0.09276374
Ar       9.98111017      12.56788527      15.30515549      -0.05613800      -0.01125828       0.07175949
Ar      11.28789890       9.25662548       5.61533119       0.00499786      -0.05988693       0.10434653
Ar      17.02322477       0.02784387      16.46396068      -0.05550361      -0.09317575      -0.04337357
Ar       3.90141962       7.63329150      13.67300681      -0.05598467      -0.04341389      -0.08937908
Ar       0.77973012       6.51572744      16.63476365       0.00215948       0.00727080       0.02802833
Ar       4.60947911      15.82527458      13.94154670       0.01057719       0.05620348       0.01421589
Ar       6.14173179       1.66766512      11.02379193       0.03948512       0.00358127       0.00467614
Ar      13.43986956       2.88497365      11.88391638       0.02413430      -0.00748620       0.03973420
Ar       2.97538883       1.95639785      12.36862390       0.01977394       0.06282844      -0.02781828
Ar       6.46439954       6.39769828       3.69288502       0.09076957       0.08667272      -0.00220672
Ar      13.57826505      10.90573828       7.91634914      -0.03986397      -0.06566507       0.00438576
Ar       5.23393463      11.85734276       0.72972317       0.03085235       0.05613630      -0.04112462
Ar       3.43576150       9.46569539       8.48061783      -0.10751774       0.02021731      -0.05004461
Ar       2.32647307      11.12128299      15.47257405      -0.04818926       0.01138291      -0.00829571
Ar       3.42210625       0.75043396      16.67249259      -0.06803269       0.01339349      -0.00735269
Ar      14.58479857       7.67035715       6.01704052      -0.01099264       0.08365553       0.04917200
Ar      10.67999716       8.75135029       8.97214939       0.01201843       0.06218126       0.00839591
Ar      12.86821509      12.40257545      11.38402878       0.01760094      -0.05955046       0.07010637
Ar       1.71922483       0.05208446       2.53573628      -0.00199518      -0.04012287       0.02898903
Ar       3.01880113       6.67871920       3.55346441      -0.11048375       0.03267571      -0.08029498
Ar      15.27459127       2.03822953       3.56197083      -0.10144534      -0.02473962       0.09308395
Ar      15.89590873       5.55053773      10.54387893      -0.00631758       0.01825835      -0.00349440
Ar       6.37317493      11.62666982      10.64139434      -0.02633704      -0.04827602      -0.04254407
Ar       4.61556045      15.40876062       2.83511458       0.07645723       0.05019130       0.08114638
Ar       9.69799629      16.45147080       5.90917645       0.04494239      -0.00490619      -0.08850079
Ar       8.24448461      16.48819051       2.48137864       0.09396260      -0.08581593       0.02229060
Ar      13.76077845      12.64277503      15.21525098      -0.08872086       0.04062531       0.02661365
Ar       6.05315294      16.98971504       5.90016006       0.04951383       0.11721037       0.03406202
Ar       9.54554643       4.20339902       9.70280603       0.15682002       0.00573214      -0.08817169
Ar      13.89799418       8.61517348      11.03225382      -0.00780240       0.04534722      -0.03038145
Ar      13.12242835      14.61107911       6.62853653       0.02931955      -0.07362321      -0.02414998
Ar       9.05077065       2.54114120       4.25253502       0.02140815       0.00198027       0.02371791
Ar      10.42816776      14.15542837       9.70875056       0.08635151      -0.01089352      -0.02749740
Ar       7.07282163      12.99497473       3.98469062      -0.00735987      -0.12176097       0.01751691
Ar      17.33381312      14.01022721      14.68443637       0.05308217      -0.01890807      -0.02932472
Ar       0.67201091      11.37704840       2.27387550       0.13293797      -0.00173337      -0.09035335
Ar      16.69040393      15.56845284       4.35973729       0.06891635      -0.02279125      -0.01565117
Ar      15.04176327      13.54354992       1.57553877       0.07691160       0.00251417      -0.03316010
Ar       1.26856783       2.55970170       5.54490546      -0.03252030       0.02246949      -0.02598173
Ar       9.68695925      10.69282859      12.09445558      -0.06068989      -0.01617722       0.07847122
Ar      16.14025967      11.44845802      11.75983562      -0.00415448      -0.06826978      -0.14344648
Ar       8.43167990       9.81754268       2.44554007      -0.01327124      -0.00464865       0.04639197
Ar       2.37299502      12.29046963      11.98510155      -0.04363255       0.01828933      -0.00650547
Ar      15.17797263       6.47989310      13.92058223      -0.03503130       0.02447108       0.00925348
Ar       2.20994084      14.25500013       5.41918598      -0.13957929      -0.00858537      -0.04570005
Ar       7.51772257       9.26004667      14.66036394      -0.02530284       0.00746106       0.06735313
Ar       8.32227317      16.07496433      16.21264442      -0.02105155      -0.00513894       0.03012267
Ar      10.73047150       4.78252941      15.48430421      -0.03464055      -0.08689220       0.01671152
Ar      12.07314159      11.28724873       1.58874751      -0.00386877       0.01061384      -0.05785984
Ar       0.47110524      16.22907316       8.22079939       0.00678874       0.05879967      -0.03975643
Ar      14.54198995       0.60543922       7.17441507       0.03400185       0.03960606       0.11499863
Ar       1.02185599       4.92377926      13.24447720      -0.10170993       0.05665678      -0.08159326
Ar      11.17192067       2.53407463       6.90512525       0.05918308      -0.04174081       0.03483278
Ar      17.06328592       8.73220938       8.31123846       0.05298341       0.01005237      -0.02415231
Ar       0.75484373       8.36499812      11.70008259      -0.02944325      -0.08053941       0.06450932
Ar      11.73216615      15.23960448       0.57140002       0.00690262       0.01663611      -0.08815538
Ar       2.73336474      14.17330861      16.94455930       0.06718499       0.08215015      -0.04440456
Ar      11.80925710      17.32203307       9.69406944      -0.01610361      -0.00497327      -0.04488377
Ar      10.92863647       1.12503944      15.60544196      -0.02562202      -0.00282553      -0.08126149
Ar      10.67252222       6.64328774      12.05330345      -0.04486327       0.07125521       0.10668779
Ar       5.91938944      12.45395880      14.57823316      -0.05192924       0.06731615       0.05778680
Ar      12.14325601       9.42031004      13.98296916       0.02589312      -0.05895243      -0.02351082
Ar      14.31758658      11.69792290       4.38842876       0.06040209      -0.03216510       0.00359205
Ar      15.43710610       9.53644661      16.18836576      -0.01657806      -0.04598682      -0.02490190
Ar      13.41537559       8.34398117       2.73924122      -0.11773982      -0.04874772      -0.00549369
