108
Lattice="17.35 0.0 0.0 0.0 17.35 0.0 0.0 0.0 17.35" Properties=species:S:1:pos:R:3:momenta:R:3 pbc="T T T"
Ar      16.82478219      11.91786729       2.58765597      -0.05062924      -0.00108306      -0.01707459
Ar       3.87941243      16.64210379      10.07630130       0.07260577       0.07264811       0.04158746
Ar       3.04348290      13.17842576       9.55625976       0.02774018       0.03912335       0.06458214
Ar      13.93571839       0.88180729       7.21098005      -0.02475609      -0.04109062       0.01055381
Ar       3.03723541       1.49437832      13.79995142      -0.00154743      -0.10487969       0.01603031
Ar      11.29901280      10.33334173      12.83536206      -0.03950579       0.02082098       0.06082010
Ar      16.18535744       3.94238663       3.14484630      -0.11180075      -0.00812666       0.00872814
Ar      13.71676440       2.51205723      10.33989599       0.05678758      -0.01482766       0.02727759
Ar      10.45759549       4.35704273      11.62867371       0.04584524       0.08028199      -0.06150051
Ar      15.43953632       4.47921829       7.37858726      -0.07479788       0.05876748      -0.01741871
Ar       1.26913175      12.07217347       6.41577358      -0.00633110      -0.09336009       0.02652110
Ar      16.61999488      15.41315234       6.86243169       0.07750487      -0.05854940       0.02337146
Ar       4.56656580      10.07959125       8.35984140      -0.01582473      -0.06203406       0.02654514
Ar       1.79308538       9.02065088       4.63050004       0.08605056       0.03095449      -0.02759565
Ar       4.53270779       3.50129187      10.19983579      -0.01507603      -0.01030734      -0.01189385
Ar       6.44941397       7.73097199       1.62384926      -0.04820364       0.05615935      -0.07284244
Ar      13.22337108       1.98148001       2.89116339       0.01694258      -0.03287412       0.04008786
Ar      16.33994093       0.55472459       1.29689750      -0.08014838      -0.03817700      -0.07329775
Ar       4.59468528       4.94896009       3.74224525      -0.02930463       0.00516085      -0.06889617
Ar      13.63250276      10.37783802       2.55458900       0.04264783      -0.06348452       0.00652323
Ar      10.13863603       2.78373689       4.73778768       0.01084873      -0.01576560      -0.10181671
Ar       9.64020702      10.68114933       7.08433590       0.01355784      -0.00868692       0.03326609
Ar       7.11840530       6.40307544      10.90537454       0.06788139      -0.13939256       0.02354014
Ar       7.39750100       7.79097694       7.45426025      -0.03647679      -0.01489546      -0.09270627
Ar       8.26648107       4.12760683      15.06637621       0.10124792       0.02111621      -0.01613578
Ar       0.98898904       4.41925693      16.89744441       0.00983201      -0.04971905       0.01944463
Ar       8.91773235      16.66862425       0.96233145       0.00753328       0.01666451      -0.08522441
Ar      13.14877714       7.26476780       1.40922553       0.03429032       0.01425350      -0.04845636
Ar      12.91901662      14.80740925       9.02472751      -0.04089745      -0.00709841       0.02816857
Ar      10.93297371      14.02505454      11.89309498       0.02254891      -0.02813543      -0.03813542
Ar       3.87856265       2.28897231       6.08721129       0.08218264       0.04830569      -0.05248151
Ar      12.57265929      16.51619785       0.42346699      -0.00490898      -0.00832980      -0.02908501
Ar       5.89395175       9.59344711       4.82010140       0.03029902       0.02536888       0.01310052
Ar      13.12545259       7.29839638      11.53338733       0.01740355      -0.00988332       0.02352684
Ar       1.28650137       7.72849612      14.70405517       0.03984406      -0.02867601       0.10341515
Ar       8.29497548       7.68403503      15.61794917      -0.01470454       0.07257990       0.04993757
Ar       3.36220318       6.86444599      10.61812169       0.02619367      -0.02731606      -0.02251159
Ar      10.37834103       1.23066928      15.73647256      -0.05648346       0.07724057       0.09084829
Ar      10.60197303       0.95851996       8.35555317      -0.01980201       0.05300954       0.02687786
Ar      16.45006195      15.29953401      10.70416754      -0.02254199      -0.10291073      -0.01838008
Ar       1.90809537      17.30370078      16.44695880      -0.06179434       0.02334081      -0.02627001
Ar       3.54762998      15.18095093      13.98410832      -0.09414569      -0.00337810       0.07145528
Ar       6.02066454      13.90689472      11.76373841      -0.10732299       0.00667796      -0.05191200
Ar       1.23192009       5.35319248       5.39179998      -0.00503107       0.07193495       0.02008553
Ar      16.75873699      11.86610586       9.17378263       0.03707698       0.00552732      -0.00788616
Ar      14.76110637      14.66873388       3.06934851      -0.02243755       0.06840174      -0.00021618
Ar       7.64713980      10.53141309      10.52174175       0.01533802       0.05203072      -0.08468643
Ar       4.90288846       6.19479806      14.16665001       0.00913486       0.07975800       0.02791856
Ar       1.35439701      12.17172800      13.06882847       0.07982601       0.03884413      -0.00029165
Ar       7.26452843      16.56523174       9.55178061      -0.05392220       0.02716078      -0.02916998
Ar       4.69747875      10.39081395      12.51391557      -0.02160605      -0.02442863       0.12856906
Ar      15.18194957       5.32460764      14.64769004      -0.02203096       0.05496903       0.00563463
Ar       4.77384070       9.71651780      16.10856131      -0.08900171      -0.01815535       0.04775422
Ar      16.25122384       9.55384480      12.07572954       0.06202596       0.11144786       0.06539617
Ar       5.37477287       0.08042771       2.66374893       0.04002147       0.05067945       0.06575827
Ar       4.17158318       7.06362425       6.53950460      -0.05565762      -0.04714823       0.04123597
Ar       1.58873037      10.27400427       0.50206069       0.13601963      -0.01153646      -0.01642867
Ar      13.46282222      16.85470101      12.01901700       0.05684013      -0.01149744      -0.03115631
Ar      16.23186225       1.78166718      13.56841449      -0.01115091       0.03972696       0.02250125
Ar      11.33451162      13.38512292       5.32262734       0.00548570       0.00698296       0.03996158
Ar      12.34170868      11.57491138       9.65556372      -0.10586002       0.08086341       0.07661178
Ar      14.38454670       8.61998748       8.55280024      -0.10659739      -0.01829233       0.05664318
Ar      17.23705821       1.08042830       9.81077077       0.02297352      -0.06372129      -0.00780990
Ar      13.31240187       4.94904385       4.75429031       0.07426210      -0.05823846      -0.04370788
Ar       1.59271511       4.19338195       8.50711085      -0.01009021       0.01338918      -0.01951312
Ar       9.77585116      14.46285184       8.20550578      -0.07414370      -0.08675460       0.01450762
Ar       2.36813057       1.99085347       2.07458405      -0.05973661      -0.00964494      -0.06133386
Ar       8.02911372      16.79649389       5.83784481       0.06650441      -0.09702088      -0.07857460
Ar       5.88190760      14.15071047       0.50152274       0.02940964       0.05237414      -0.00948572
Ar      14.34151451       9.12193589      15.52981792       0.03253037       0.04424566       0.00522810
Ar       7.62107095       3.34010359       2.28142842      -0.01680290      -0.04410349      -0.11185131
Ar      10.74498988       4.87082707       7.59863497       0.09797321      -0.01426626       0.05692807
Ar      13.97152531      12.37962766      12.85358268      -0.02142834      -0.00071675      -0.04728063
Ar      11.60662044      16.72909668       4.62018562       0.00617573       0.05902010      -0.00781336
Ar      10.77193277       4.76219050       0.45282869      -0.02138471      -0.12489019      -0.01616265
Ar      16.06605633       5.92954837      11.09378676       0.24479064       0.03791764      -0.06352948
Ar       7.82260772      10.63754448       0.09822689      -0.05464445      -0.01208633      -0.00007923
Ar      11.72668480      12.72292310      15.66941370       0.03356052       0.11507978      -0.00927119
Ar       1.77052871      13.83558912      16.88932568      -0.04406529       0.09401719      -0.05234781
Ar       5.93537616      14.07662976       4.23169196      -0.03517194       0.08297576      -0.05035247
Ar      15.38493403      12.48271340      16.32786225      -0.05115386       0.03012708       0.00652065
Ar      10.49451335       7.89760206       9.41626705       0.02209388       0.04008113       0.06105932
Ar       7.66343466       2.54651499       8.80380466       0.01356922      -0.03208261       0.06372925
Ar      16.61958708       7.48585585       0.92771999      -0.02936212      -0.05529930       0.01765119
Ar      10.34161649       9.98023872       3.17317904      -0.07811027      -0.06015219       0.07897935
Ar       7.85997648      10.89743627      14.06989598      -0.00269432       0.01214900       0.01030541
Ar       1.39772398       4.66315720      12.95186148       0.08667791       0.01353588      -0.09216821
Ar       1.51505445      15.00656747       3.43661469       0.08326735       0.05816642      -0.02324005
Ar       9.92911262       6.26872344       3.66233231       0.01965654       0.01418127       0.01576582
Ar       6.08636434       1.21541914      16.41393008      -0.00264616      -0.02887733       0.02959931
Ar       7.35600330       4.60308468       5.90893558      -0.04502644      -0.07034357      -0.05637535
Ar       9.58122361      13.15715051       1.99867076       0.02844025       0.10323800      -0.00555791
Ar       2.98892447       6.93478977       1.44223553      -0.04430825      -0.11400440      -0.00772827
Ar       4.14321057      16.12756483       6.64463637      -0.05976154      -0.00285004       0.03297519
Ar      13.83984776       2.30671882      16.49698685       0.03127449      -0.00357504      -0.08920303
Ar       0.65278760       7.59605727       8.09199195       0.04930757       0.01516415       0.03433275
Ar       6.61388968      12.77264701       7.52684341      -0.01647176       0.03341430       0.00096298
Ar      11.22337721       9.58847740      16.71533172      -0.03006991       0.01472732       0.02573688
Ar       4.05369764      11.81766418       3.16388777       0.03937268       0.06834910      -0.00964305
Ar       0.40162781       1.30393265       6.07610963       0.04137400      -0.01504735      -0.05901971
Ar      16.78073118      15.50319857      14.53520700      -0.03993060      -0.03324024       0.00972765
Ar       8.22320920      15.81974688      14.22862095      -0.16469764       0.01522285       0.03261231
Ar      11.52650456       6.30164108      14.54689854      -0.00358537      -0.09124121      -0.00543536
Ar       6.36274409       1.69849225      13.03153900      -0.04700988      -0.05384543      -0.09496710
Ar       9.92501709       0.68257789      11.97465660      -0.00589335      -0.02503547       0.11554176
Ar      14.84050737      11.74080308       6.35642214       0.06016110      -0.03747704       0.07490708
Ar      15.74194150       8.12522845       5.05073662      -0.03926915      -0.04954544      -0.05190075
Ar      11.95230237       7.96594560       5.91889645       0.03282635      -0.04007750       0.05647201
