108
Lattice="17.35 0.0 0.0 0.0 17.35 0.0 0.0 0.0 17.35" Properties=species:S:1:pos:R:3:momenta:R:3 pbc="T T T"
Ar       0.03456255       9.64057798       3.75415936       0.03607576       0.12514175      -0.02338200
Ar       2.73516611       1.12305140       9.64778384       0.07629254      -0.01085375       0.04757817
Ar       4.76339410      15.55403928       8.56071176      -0.06811427       0.00597779      -0.04102405
Ar      15.08069209       0.49572290       4.98576591      -0.00761937       0.00573161      -0.00185412
Ar       7.78703864       3.06130594      13.27954412      -0.04810118       0.00098915      -0.03009871
Ar      10.78211860       9.17154888      11.55639167      -0.03765829      -0.08736514       0.00765139
Ar      15.50325078       3.70724160       1.23811397      -0.04394392       0.01732946       0.07584864
Ar      13.96806373       2.88788987       8.47397617      -0.02851874       0.01145128      -0.06534160
Ar      10.56263961       8.11424692       7.40085640       0.01684339      -0.00522186      -0.04338586
Ar      16.95599286       5.95303347       3.49716750       0.01122029      -0.09483246      -0.03492841
Ar       0.79166176      13.92129125       9.21692408       0.03881737       0.02593984      -0.06743671
Ar      15.22633171      16.60221606       8.57876851       0.02046704      -0.00531067      -0.00341796
Ar       4.77139868       9.09195237       6.15363369      -0.04660038       0.00323217      -0.02873892
Ar       0.18539155       8.16436119       7.20905888      -0.00919862       0.03299688       0.02812339
Ar       3.64415965       8.22010986       9.73668891      -0.08158639      -0.05357765       0.04373772
Ar       7.97083044       5.69146820       1.89632539       0.02496243      -0.03597575      -0.01394059
Ar      12.59506370       1.38431344       2.35469726      -0.04147235       0.14191185       0.06164132
Ar      14.40810570      12.15890043       2.60238717      -0.02141744       0.04997332       0.00896909
Ar       5.87473461       4.53052966       4.54835298      -0.04546983       0.01356667      -0.02096964
Ar      11.77362936      15.09529009       2.02259980      -0.09034328      -0.15787899       0.09384413
Ar      11.10089674       0.32867382       6.05336692      -0.05555537      -0.00632900       0.05262447
Ar       6.56861054      10.24301874      10.56109911      -0.00001502      -0.03283644      -0.03287769
Ar       0.52385830      10.92347731      14.63255126      -0.00402259      -0.04141704      -0.05004571
Ar       8.68025670       8.05218503       4.43855310      -0.02591160       0.02048958      -0.05951971
Ar       9.68726697       3.03623473      17.11375992       0.00320043       0.01651552      -0.01657089
Ar       5.19460154       3.34297145      16.20810532       0.04985549      -0.06731013      -0.01484300
Ar       8.41399838      16.38741197       0.56128280      -0.05220145       0.06549231       0.02270696
Ar      10.37472158       8.40046829       0.94708247       0.00068396      -0.00741620      -0.01441301
Ar      11.56669905      15.15633277       8.67832340      -0.08563471      -0.00452387      -0.03680236
Ar       9.71051507      12.79486929      10.48852944       0.01172907      -0.03397527      -0.03638812
Ar       4.88908396       3.60694146      10.90375515      -0.02419676      -0.13370069      -0.10939680
Ar      13.29290694      13.78343266      16.06458285       0.05374463      -0.00518661      -0.04580869
Ar       8.54546910      10.91550900       7.03194391       0.03665324      -0.12900043      -0.00991881
Ar      12.52147838       6.16766017      10.02707092       0.00495045       0.06254200       0.03666562
Ar       0.63768318       7.18298237      17.06741426       0.04298125       0.03301733      -0.07808863
Ar       9.47571386       7.33552428      15.16788523       0.00533087      -0.01509455       0.03810107
Ar       2.53373682       6.05866084      13.01535549      -0.01925746       0.00799820       0.02435891
Ar      11.17480475       2.21026842      13.15453545      -0.07496326      -0.02376682       0.03046653
Ar      10.30129780       0.76220247       9.87538167      -0.05213204       0.02209213      -0.07478427
Ar       3.02524539      15.71626755      12.47923351       0.01179888       0.01804277      -0.06322116
Ar       3.64249641       3.89781908       1.90009361       0.08011029      -0.03941803      -0.04000048
Ar       4.69048725      16.91758430      16.89397469      -0.04918478      -0.06971145       0.04063935
Ar       6.17476321      14.00090405      11.70502666       0.00390242       0.05818376      -0.11016690
Ar       2.90076098       7.51324591       3.16155385      -0.02040673      -0.01755286      -0.01229790
Ar       0.47213491      10.19487115      10.30991317      -0.02128871      -0.01880862      -0.01742509
Ar      14.98593603      16.55315700       0.86250930       0.11275216      -0.00386622       0.01334622
Ar       4.70875425       9.58579416      13.84880199      -0.00257374       0.11596153      -0.01832044
Ar       6.13036574       6.28670841      13.74656062      -0.02597978       0.02693955      -0.02167124
Ar       3.67434721      12.89343140      15.51280730      -0.01733470      -0.04782218      -0.02932335
Ar       6.84432910       0.63980546      10.56484928      -0.01527363      -0.00486117       0.07492741
Ar       3.15976726      11.98207285      11.86947160       0.09374957       0.02755027       0.08740497
Ar       1.98187163       1.28278232      13.89586646      -0.00363742       0.11170119       0.04973414
Ar       4.98225240       6.83204332       0.28225967      -0.13653665      -0.05397616      -0.01464802
Ar      14.60294010       9.05469736       9.04751922      -0.06894688      -0.04673523       0.05877316
Ar       2.43418518      16.89336168       2.84920030       0.12004142      -0.00521270      -0.03410932
Ar       2.53237318       4.92223372       6.76606864       0.10742120       0.00724297       0.05207748
Ar       3.53816231      10.25926955       0.08714049       0.01120392       0.05177237      -0.04871166
Ar      16.18516353      13.67735820      13.04243996      -0.07353201      -0.12355316      -0.03016239
Ar       0.10784741       4.47645070      15.25505336      -0.07251521       0.03743471       0.02695766
Ar      12.01972338      11.86159275       7.79534389       0.10658314      -0.04797356      -0.10131031
Ar      14.57850849      13.26154978       9.79707828      -0.07584320       0.13655488      -0.07941859
Ar      17.09786937       1.99388954       7.83390022      -0.00489250       0.04313889      -0.03374291
Ar       0.96011827       2.45478627       4.20564615      -0.03625395      -0.06675471       0.02591767
Ar      12.17561178       6.36916349       4.29833509       0.05518798      -0.01560002       0.13422002
Ar       0.65199957       5.02010463      10.11194131       0.04602015       0.01854832      -0.09136088
Ar       8.17492601      14.48461332       7.33708599      -0.00457406       0.09973798       0.08269230
Ar       4.11009382       0.73002002       5.60311669      -0.00270291      -0.00964264       0.08270422
Ar       7.37169954       0.60576771       6.94220820       0.00024799      -0.02723597       0.00765326
Ar       2.95623770      13.22487236       2.08752319       0.04101636      -0.03393136       0.00676343
Ar      15.20549613       9.27757188      16.32734150      -0.03779769      -0.06132565       0.06555472
Ar       5.97848531       1.35785274       2.40471491      -0.01875592      -0.03328252       0.05131157
Ar      11.00802814       4.29978846       6.86644073       0.05514406       0.00596921      -0.05831514
Ar      13.35059637      11.08210548      13.08713107      -0.01650592       0.01371888       0.04789950
Ar      12.72108528      14.22408961       5.28868959      -0.05539695       0.00785248      -0.01115891
Ar       9.40559742       2.44716594       3.73374546       0.04951900       0.02979355      -0.01593567
Ar      13.77588731      17.26501803      11.57888606       0.03155299       0.12546740       0.02902701
Ar       7.82786859      12.94169368       2.91176591       0.09552665      -0.03269455      -0.03513191
Ar       8.37010436      10.93259265      13.60863720      -0.04178277       0.05008433      -0.07155366
Ar       0.83089713      14.95184644      16.09796699       0.03934763      -0.00071544       0.07910247
Ar       8.11822817      16.17827760       4.05623092      -0.04147970      -0.00382659      -0.02295957
Ar       0.08690007      11.55142440       0.58036760      -0.04141860      -0.01749085       0.02983084
Ar      15.17553025       5.54732629       6.32093125       0.10784985      -0.00737729       0.01057824
Ar       7.47868887       6.78048945      10.25730807       0.01983711       0.04483222      -0.00421505
Ar      16.16079749       7.64458403      12.41044708       0.05366543       0.03616741       0.13612343
Ar      10.75412598      11.44670322       4.53405497       0.01057188      -0.06147652       0.03320208
Ar       7.56249059      13.91742448      15.46713687      -0.03344641       0.07094228       0.04846662
Ar      14.71877615       3.13976816      12.23579424       0.05167413      -0.02027120      -0.05781345
Ar      17.05318000      14.52745437       2.87241962       0.00348725      -0.00674758       0.08575743
Ar       6.08108852       9.62072057       2.51455055       0.16260048       0.07179525      -0.08411466
Ar       6.05497678      16.94585582      13.83950824      -0.04560227       0.06468385       0.03458492
Ar       7.46858979       3.89264489       8.16921330      -0.00721210      -0.03283440      -0.07248832
Ar      10.24211332      11.89235555       0.22291991      -0.02469298      -0.09379871      -0.02959700
Ar       4.99947512      13.75812274       5.33289004       0.02243285      -0.11700261      -0.05064299
Ar       0.71608307      15.70474983       5.83120838      -0.01499090      -0.01482387      -0.00585796
Ar      13.39970113       2.87661524      15.92911297       0.08815598       0.05970871       0.01784719
Ar      13.84526264       9.79698973       5.46130020       0.02144314       0.03654240       0.07717395
Ar       4.27648682      11.91760413       8.73313817       0.04672096      -0.00735650       0.05701545
Ar       7.26971316       9.90809449      16.86870333       0.11901601       0.00720654      -0.05407976
Ar       2.16280306      11.40485836       5.95221785      -0.01557129      -0.02300209      -0.06928341
Ar       0.84540786       1.34226927       0.10302588      -0.11590481       0.02742751       0.01928136
Ar      17.04642988       0.13144279      11.60531609      -0.04541857      -0.09547214      -0.01191880
Ar      11.71249855      17.22805915      15.73907897      -0.04277111      -0.00474877       0.07326156
Ar      12.77680019       6.14961126      13.72218771      -0.00665917       0.06305380       0.01650822
Ar       9.24734039      16.38309203      13.34488960       0.04108002      -0.03740306       0.02158023
Ar      12.04799122      14.45357245      12.67185215      -0.00933093       0.05643864       0.02148133
Ar      16.14420648      13.00157659       6.33782748       0.01825395      -0.00595916       0.05275961
Ar      14.40213316       8.08335239       2.17053935       0.02080507       0.04413832       0.06717092
Ar      12.22112504       5.23764712       1.04558453      -0.07237890       0.03081803      -0.03671417
