108
Lattice="17.35 0.0 0.0 0.0 17.35 0.0 0.0 0.0 17.35" Properties=species:S:1:pos:R:3:momenta:R:3 pbc="T T T"
Ar       1.17350599      10.45119366       3.77310712       0.00465696      -0.00500251      -0.07162185
Ar       3.57314289      17.34619300       9.01529102      -0.03953828       0.02670372      -0.05910167
Ar       4.85125593      12.11693511       9.65284613      -0.02412223       0.10000380       0.09677878
Ar      12.55062582       3.85513574       4.75709940       0.03891738       0.03443207      -0.06745952
Ar       3.17102441      16.10493579      14.74658561       0.05285185      -0.06544163      -0.04705627
Ar      12.25543181       8.50984469      13.92159304       0.00957844       0.03370258       0.04733179
Ar       0.46077347       0.15689349       0.61331326       0.03817136       0.06520988       0.04083503
Ar      15.69684302       4.47806192       7.71854057       0.05838591      -0.04368219       0.02527811
Ar      12.98511034       3.17700610      12.14158033       0.05769896      -0.01760686       0.00175856
Ar      13.55011195       7.54457429       6.86598278       0.03248893       0.08137061      -0.01202871
Ar       3.20337226       9.56443156       8.18331805      -0.02637200      -0.01109759       0.04962214
Ar      15.09803684      13.10075120       5.88060774       0.07844158       0.04507602      -0.02632173
Ar       2.61889144       3.37368950       9.77258881      -0.08747628       0.00347040       0.00786049
Ar       3.20133197       6.96397351       3.95978560       0.00427525      -0.00746547      -0.02273594
Ar       6.14407526       1.69613591      11.47710624      -0.05219872      -0.04425927      -0.02929513
Ar       5.10245530       8.86444136      16.11143343      -0.12796536      -0.11179905       0.18915394
Ar      13.96844636       3.96793458       0.96718141      -0.02517689       0.04880977       0.07663449
Ar      15.42286615       1.77826164      15.76629288       0.02338997      -0.00517220       0.03066260
Ar       4.12870514       3.13913050       5.89772728       0.03276839      -0.06137475      -0.02337583
Ar      12.52846906      13.30161993       2.96280350      -0.04126424       0.02277781       0.08766226
Ar       9.00320045       5.38797412       3.32960446      -0.03482225      -0.03169970       0.03415897
Ar       8.51218851      11.62393554       8.69901116       0.00482471      -0.04953019      -0.02485192
Ar       7.33387634       5.42352863      10.32992184       0.05898505       0.00420986      -0.07349482
Ar      10.47887327       8.95434579      10.67229471       0.04426644       0.05790288       0.11585000
Ar       7.00745843       4.41132705      14.00178810      -0.08455464       0.05174338       0.04481611
Ar       1.86201402       2.11937567      15.49890507      -0.01814986      -0.09908082      -0.00674636
Ar      10.35565455      15.72671090       0.85619936       0.09916376       0.03065393      -0.05796585
Ar       8.09650763       7.98473600       1.26551353      -0.05924963       0.05907878       0.00002720
Ar      13.99038817      14.84509604       9.11805246       0.01295589       0.10284662       0.01249464
Ar      10.66110615      14.29566379      12.46693725      -0.05056406      -0.04136652      -0.03301343
Ar       3.29010215      16.81477701       5.02332466      -0.00572765       0.06830368      -0.01102516
Ar      10.02685100       2.22431022       0.96893193      -0.00580711      -0.01601011      -0.08248104
Ar       5.96227266      11.54425551       6.15238544       0.03567450       0.01753529      -0.02694417
Ar      14.46005321       8.17802673      10.15994712       0.08725413      -0.03572626      -0.09133389
Ar       3.62562480       9.17016556      12.24263205      -0.00198645       0.02402585       0.03032999
Ar       9.04723002       9.71069945      15.57307640       0.03500263       0.07143635       0.00951240
Ar       3.25039002       4.93843889      13.28759135       0.00043918      -0.02901198       0.05729048
Ar      10.09532690       3.25515556      14.90948777      -0.01185653       0.04915289      -0.08846522
Ar      13.04125247       1.55317197       8.15504583       0.00620263       0.01333739      -0.07705653
Ar       0.26968445      15.23838804      10.37298280      -0.03984343      -0.11987967       0.01159448
Ar       4.19451405       0.04153718       0.71792693       0.03676367      -0.00614330       0.00973687
Ar       3.57322076      14.87675893      11.52747916       0.01236711       0.08732412       0.00426602
Ar       4.85099335      12.38195521      13.63781420       0.08423308      -0.03452643      -0.04268753
Ar      15.70892415       2.84168058       3.77251289       0.04650712       0.02781733      -0.08740617
Ar      15.90818097      11.78098892      10.23250899       0.05271544      -0.07319716       0.00550948
Ar      14.49784057      14.90889762      16.87973831      -0.07725180      -0.07812829      -0.04383824
Ar       8.39882447      11.26828289      12.66984391       0.09952265       0.04824339       0.03849806
Ar       7.00722292       7.97605503      13.07492074      -0.00530538       0.04824828       0.04681794
Ar       1.08751907      12.56422041      12.38304243      -0.01581916      -0.07925108       0.01361636
Ar       7.26369697      15.05747116       7.05510773      -0.04028567      -0.05275684      -0.01692378
Ar       6.72265293       8.55733376       8.17951272      -0.04172489       0.01337440      -0.06191575
Ar      13.79154892       8.40818443      17.19918930      -0.00502725       0.08641498      -0.07046012
Ar       1.81585912      10.88240128      15.37361495      -0.00018130       0.05114702      -0.03395679
Ar      15.76517978       9.20654948      13.32112240       0.06256910      -0.07151063       0.03186674
Ar       5.53741276       3.25414370       2.57535730       0.01853398       0.08699386       0.07691779
Ar       6.63304413       1.58962486       7.89352563      -0.03089256      -0.02386502       0.08031865
Ar       1.00301832       8.17871578       0.98473213      -0.05811074      -0.05210649       0.08946573
Ar      16.08012835       1.07146110       9.88596396       0.13566592       0.04917164       0.10650392
Ar       2.50266975       1.07801097      12.09999793      -0.02398217      -0.00380034       0.05135589
Ar      10.17859504      13.32333108       5.57990500      -0.03523446      -0.02615334      -0.03462682
Ar      12.97715291      11.60159146      11.96655223      -0.05112388       0.02592509       0.04407997
Ar      12.51349823      11.64009945       8.20819460      -0.03971768       0.02417704       0.05758089
Ar      15.81336276      16.62515037       6.32701359      -0.01595405      -0.07004518       0.02905922
Ar      12.18202817       7.09583432       3.46855676       0.05197366      -0.06544522       0.00382954
Ar       0.49480368       2.10612878       6.59107308      -0.01478350      -0.04679123      -0.12397169
Ar      10.55444282      15.30298115       8.98171011       0.00599935       0.06899064      -0.11187135
Ar       1.99504827       2.85207502       3.09958198      -0.07449432       0.12740848       0.04645603
Ar       9.95925796       2.26859801       6.46132186      -0.03317431      -0.01834738       0.01810691
Ar       4.77747421      13.81372266       0.20276084       0.01869608      -0.04264495      -0.00566309
Ar      11.25440065      10.06698509       1.37057359       0.04740775      -0.09092001      -0.00687995
Ar       4.47378223       6.07837835       0.56161106       0.00015020       0.01597168      -0.00997863
Ar      11.57134542       4.76787749       9.16515590      -0.07339248      -0.11646521       0.08652813
Ar      15.60092136      12.48002119      14.43903039       0.03832716       0.03369029       0.00256219
Ar      11.99106520      16.75855134       5.27000966       0.01356635       0.08344987       0.00224156
Ar      10.87385318       6.09597863      16.74652866      -0.01522043      -0.04401902       0.06194222
Ar       0.72954594       6.95878447      11.29704182       0.01135985      -0.07034275      -0.07700249
Ar       7.95568691      12.68223891       2.20304604      -0.10278880       0.04420297       0.07368464
Ar      12.09150952       0.24933534      15.87961652      -0.03889800       0.00249593      -0.02843029
Ar       1.13740358      13.99475330       0.59419968       0.02425477       0.08957878      -0.09580517
Ar       3.46319530      13.45067303       3.55443634      -0.04221256      -0.01798805       0.02763667
Ar      15.81033551      10.96542738       1.20983760       0.06302011      -0.04025659       0.04409234
Ar      10.17982977       5.91785832      12.72532999       0.02266114       0.02354492      -0.11896121
Ar       9.49067556       1.53383884       9.94072171       0.01844862      -0.05079185      -0.02656443
Ar      16.43582432       6.77307842       3.86860408       0.03696684      -0.04221686      -0.01714050
Ar       6.57939958       7.54904116       4.75521339       0.03686009       0.17676753       0.07303912
Ar      11.28531560      12.69160408      16.40065789       0.11691575       0.06131774      -0.06761280
Ar      16.89980264       3.26652247      12.81139464      -0.02021356       0.05844089       0.02683495
Ar      16.10316475      14.95223837       3.00271856      -0.17408891      -0.02805593      -0.03991923
Ar       7.64618902       4.93033810      17.21044872       0.00449804       0.03750985      -0.01702904
Ar       6.60129276       1.52613182      16.05337582      -0.03334264       0.00678889      -0.05808926
Ar       7.36462172       4.89220053       6.59228781       0.00621737       0.01504150      -0.03349497
Ar       7.41198916      17.14207843       2.23083356      -0.03249467       0.03359676      -0.08833627
Ar       1.15858239       7.40826446      14.85394547      -0.07634381      -0.02509463       0.06525521
Ar       1.88113874      12.67405695       6.90104694      -0.02646791      -0.07527201      -0.05908567
Ar      17.03509023       5.01114714       0.10877859      -0.03247283      -0.01582168      -0.05126583
Ar       2.52305696       6.39042830       7.66361437       0.03257569      -0.09215296      -0.04883992
Ar       7.11276520      14.41792310      11.02450251       0.04351107       0.10566771       0.02159133
Ar       9.78415645       9.86167761       4.70580309       0.02723662      -0.00865752       0.00814865
Ar       4.67439024       9.82592913       2.60802759       0.00195806       0.12005324       0.01504366
Ar      13.43980221       0.32590465       1.76884680       0.08430728      -0.04894517       0.09773362
Ar      16.92907319      16.62295510      13.76234084      -0.07945984      -0.03923886       0.01801740
Ar       7.06392063      15.35393296      15.25571182      -0.02421433      -0.07880410      -0.00897707
Ar      14.82729595       5.80721143      14.11227613       0.07830722      -0.04788659      -0.00648716
Ar       9.26999349       0.27418050      13.20856458      -0.01911972      -0.09292096      -0.01075203
Ar      13.38822488      16.83001566      12.06294500      -0.00057775      -0.05210618       0.01814138
Ar      16.53579224       9.62056711       6.72225696      -0.07230406      -0.06510981       0.01116844
Ar      13.56709713      10.43595098       4.65477090       0.05245055      -0.02236665       0.01529406
Ar      10.08761148       7.35745354       7.46697929      -0.03959061       0.04021470       0.04375425
