108
Lattice="17.35 0.0 0.0 0.0 17.35 0.0 0.0 0.0 17.35" Properties=species:S:1:pos:R:3:momenta:R:3 pbc="T T T"
Ar       6.76071427       3.32134526       5.36083604      -0.05661923       0.02399125      -0.05733612
Ar       7.94684366       6.91065312       3.80642293       0.12341806      -0.01320502       0.02528068
Ar      11.23423656       8.95608739       3.37492066      -0.01011667       0.02793826      -0.05469283
Ar      14.87279002       8.50949680      10.00547460      -0.00503771      -0.01532525       0.02432573
Ar       3.69623362       1.11607107       7.63393749       0.03484696       0.00439901       0.05969784
Ar       3.54254212       2.08387516       4.15409963       0.07518764       0.00425472      -0.06733366
Ar      14.99291606       2.62942940       1.73663396      -0.07645240      -0.08259714      -0.00064293
Ar      14.27526263       4.26949612       9.01868224       0.01233389      -0.05356901      -0.10779276
Ar      11.52979087       5.03058529       6.66732525      -0.02891396       0.01418706       0.05470580
Ar      16.83624169       1.62432444      16.23710289      -0.01363867      -0.07115221       0.02637580
Ar      12.68452464       8.73090266       7.05930586      -0.05206416      -0.01075502       0.04991036
Ar       0.32845833       3.94880979       5.97891965      -0.05342714      -0.03091757       0.00461229
Ar       1.64738696       3.52537387       0.68178380       0.10433136      -0.11294037       0.03760641
Ar       6.14330598       7.63385147       0.59865005       0.04059432      -0.01886658      -0.06252007
Ar       8.53656287       4.25387528       1.77253711      -0.05153800      -0.01117299      -0.00081593
Ar      16.79267990       0.13964892       3.67895630      -0.04012723       0.01471980      -0.07482739
Ar       6.32487061      16.67673330       5.36827109      -0.03357821      -0.01954163      -0.08501162
Ar      11.87751172       3.47023154       3.02882498      -0.02060454       0.03004616      -0.06523270
Ar       4.61780223       4.78218315       8.19056828      -0.02067885      -0.07759871       0.06955440
Ar       2.44079178       9.73979140       0.09434394      -0.04926349       0.04871526       0.01145626
Ar      14.52412179       5.54832189       5.23672977      -0.03666694      -0.00676068      -0.00161868
Ar      14.85429877       0.40255452       9.86739157       0.04725764       0.04053754      -0.01593228
Ar       5.13825748       4.23669669       0.64835167      -0.08932170      -0.08596807      -0.08474117
Ar       4.12126125       5.79135216       3.73302718      -0.04696815       0.01862570       0.07740536
Ar      13.26922030      16.88707722       3.30075303       0.03781216       0.06974852      -0.11355189
Ar       9.21518101       2.74554611      16.04261525       0.07033055      -0.02247310       0.03480465
Ar       5.63881740       3.92722765      14.09291374       0.02788302       0.06734837      -0.00798801
Ar       8.58769278       1.85321430      12.17155858       0.03632684       0.03398662      -0.04040716
Ar      14.38259261       0.57333299      13.63839840       0.03008620      -0.03455190       0.08461433
Ar       0.70785135       2.36513982       9.12760341      -0.08940624       0.06346832      -0.02640471
Ar      10.51128002       6.61083914      16.71738682       0.06182384       0.06421260      -0.00226308
Ar      10.69421683       1.30466019       9.11739826      -0.01536577      -0.04041657      -0.00179986
Ar       9.12981133       8.31052396       7.83877377      -0.00738026       0.00361948      -0.11533788
Ar       9.43801571       5.96537027      13.58396796       0.01579374      -0.00797122      -0.06148693
Ar       2.84930551      17.14043987       1.37991052       0.00135594       0.02516926      -0.00028103
Ar       0.46751807       6.10428596       8.99532273      -0.00215901      -0.04293433       0.02665769
Ar       2.64893403       6.42321581      14.96888704       0.09145803       0.05389543       0.03023358
Ar       2.35251667       1.87540464      14.79749054       0.06867821      -0.01987037       0.07271545
Ar       8.52851156       4.29473403       8.73729356       0.00337323       0.01598095      -0.10375688
Ar       4.17686353       0.87495020      11.13568394      -0.03440916      -0.01012937       0.00267364
Ar      17.29953374       7.66410516       5.87782731      -0.04581179      -0.04048247       0.02896570
Ar      11.33734725       5.76985280      10.18022273      -0.06305605       0.05859052       0.00175438
Ar      17.08854826       2.80416152      12.54261763      -0.04543209       0.02783084      -0.03322457
Ar       9.39767178       9.86671099      14.94933511       0.04079671       0.05306006       0.00546401
Ar       6.24384249       7.94056344      13.92709888       0.08960099       0.03235983      -0.00558389
Ar       0.07354409       6.25815137      12.61515866       0.04211706      -0.00290762       0.02837828
Ar       2.81222935      10.63528005      14.27954241       0.01879824      -0.04773552      -0.02961052
Ar       2.96036538       4.05249153      11.68164485      -0.04570422       0.12354527       0.06299327
Ar      17.00401453       8.13258701      16.42624979       0.01277876       0.02267397       0.03380324
Ar       0.40882025      16.63772853      11.80126563       0.04360393      -0.01540891      -0.03178463
Ar      13.71487388       4.64522265      15.25053866      -0.11594400      -0.06646945       0.04636242
Ar      12.10809856       2.96018437      12.28324921      -0.02455035       0.04394839       0.05542245
Ar      13.32489008       2.03517422       6.08906549       0.06888797       0.12096390       0.00083152
Ar       2.98225089      11.90999688      10.98161849      -0.08427044      -0.05912432      -0.08060636
Ar       1.25588712       9.94276578       3.68807075       0.00762649      -0.02529966       0.02166773
Ar      15.40930774      10.89956090       6.93641716      -0.02229506       0.01871940       0.06399095
Ar       5.88432700      11.62130189      17.31334078      -0.05304595      -0.06595352      -0.11286745
Ar       5.61080732      12.92205439       5.15711055       0.06373139       0.02161980       0.07432953
Ar      14.64532122       9.19949902       3.71507959       0.04452872       0.04235324       0.03376442
Ar       8.53622527      10.29649565       5.11396330       0.03465394       0.09298807       0.07826930
Ar      15.26675411      15.60378918      16.88423002      -0.02851683       0.03401872       0.10061642
Ar       8.58391112      13.40363036       3.37368550       0.07746450      -0.09121751      -0.06870581
Ar       9.53539358      17.22719377       1.71374652      -0.05939374      -0.08929892      -0.05573499
Ar       0.46258164       7.12411229       2.32455190      -0.00299863       0.02503417       0.02679333
Ar       4.82999863       9.69350112       3.18893684       0.02350539       0.07085447      -0.03929653
Ar      12.86492679      15.87929062       7.22290036      -0.00377908      -0.05857711      -0.00211617
Ar       5.84080335      15.06792679       0.59840372       0.07372251      -0.05567000      -0.04239785
Ar       9.59287674      12.06940192       8.21911833      -0.07664070      -0.02231464       0.01471888
Ar      15.31575764      14.26956572       4.83595952       0.00236368      -0.01441011       0.01556183
Ar       8.68662796      10.21900621       1.39711144      -0.03969165      -0.09203405      -0.01964435
Ar       9.58870589       1.29762324       5.26813617       0.01779029      -0.04452223      -0.05417797
Ar       7.01180512       0.67411247       9.00949976       0.03548607       0.10175056       0.06246420
Ar      12.20899306      12.29361419       4.96098152       0.00936990      -0.10921391       0.06440244
Ar      16.54730076      12.93197275       9.78054052       0.03631360      -0.03610910       0.02700293
Ar       1.92955451      12.55424790       6.28736145       0.00004851      -0.01749493      -0.03775944
Ar       5.59845299      11.89722198       8.74142215       0.10224850      -0.04934579      -0.03812590
Ar      11.32404127      13.47351202       0.93591921      -0.01305932      -0.10724463       0.07967040
Ar      12.59585805       0.42268165      17.05273977       0.11928022      -0.00441160      -0.04228463
Ar      13.77163186       6.09873677       1.35672170       0.01044769       0.03585933      -0.02318903
Ar       9.22896355      15.62971950       7.44170700      -0.02624745      -0.01473416       0.03760096
Ar       2.76172561      16.08763396       5.01078067      -0.00486047      -0.12037942       0.05046835
Ar      17.27730878      16.22949645       7.36728987      -0.11687013       0.07689761      -0.07977820
Ar       5.98380082       0.20296694      15.16174305      -0.00059426      -0.00932783      -0.00349571
Ar       0.90397471      14.32214542       2.79165703      -0.11865332       0.03408991       0.11835813
Ar       3.48895506       7.66978627      10.71189364       0.03999892      -0.04634170      -0.07419342
Ar       3.61907263       8.31125703       7.12021082       0.01610736      -0.01623130      -0.04529581
Ar      10.95424440       9.85152842      10.68198773      -0.04329394       0.07483459      -0.00930258
Ar       0.86441030       9.84139565       8.98177974       0.00705974      -0.03854001       0.04389427
Ar      17.14661033       9.51695282      12.47869849       0.05059350       0.00415604       0.02285569
Ar       3.00537279      15.82119132      14.06242499       0.00424196       0.01634652       0.04234996
Ar      13.68448868       8.07249512      13.78732631      -0.02820144       0.02846467      -0.07343483
Ar      12.66403688       9.73710220       0.31645656      -0.04018767       0.06042961      -0.00012815
Ar      15.27975953      12.18088255      15.30217101      -0.02735423       0.06196493      -0.02939136
Ar       2.01136550      13.63845536      16.78220174       0.01906671       0.01913473       0.05523179
Ar       0.09679652      13.49076607      13.08143600      -0.02387826      -0.01074473       0.13838674
Ar      13.17792709      13.13036364      10.36081926      -0.04015403      -0.01046149      -0.06410134
Ar       7.35761577      10.29298354      11.37158933      -0.06053700       0.08640895      -0.13436508
Ar       6.88327144      13.28371157      14.31551947      -0.12624777       0.09443693      -0.02804353
Ar      12.49727534      14.79269744      15.00263987       0.02938835       0.03965876      -0.01471503
Ar       6.29276074       1.44121717       2.27725379       0.03379560       0.11393244      -0.01321549
Ar      11.67938075      15.98666338      12.05684647       0.01529004      -0.03476217       0.00093384
Ar       9.22306602      16.39869841      15.15536811       0.03192682      -0.00091606      -0.02037912
Ar       6.96891331       6.95220224      10.42749785       0.06670638       0.01306690       0.09521753
Ar       7.36660267      15.98970073      11.96018175       0.09885444      -0.01995620       0.09429092
Ar       3.66460116      15.24119400       8.47089247      -0.03777695      -0.02392044       0.02928128
Ar       9.55183969      13.06481511      11.70526219       0.01377649       0.06415236      -0.01677309
Ar      12.19387364      11.62392221      13.51242179      -0.04896040      -0.13980005       0.07680888
Ar      16.92215764      11.60191879       1.14558863       0.01688172       0.05108891       0.04996218
