108
Lattice="17.35 0.0 0.0 0.0 17.35 0.0 0.0 0.0 17.35" Properties=species:S:1:pos:R:3:momenta:R:3 pbc="T T T"
Ar       2.38812161       9.60356779       7.94374228      -0.00191440       0.05640180       0.01218673
Ar       7.12350448       4.04103205       8.54398397      -0.03310000      -0.04282092      -0.01221606
Ar       9.79170957      12.92065680       7.85816107       0.02038721      -0.04281020       0.00668557
Ar       3.60435421       3.45049966       9.34241804       0.09516046      -0.01159907       0.03868135
Ar       8.50127957       4.81963282      16.96541761      -0.04128057      -0.05685813       0.02345741
Ar       8.13715250       7.47117506      10.61911626       0.01098176      -0.03330213       0.03455566
Ar      15.44014330       3.91883893       0.13889884       0.00078373       0.06459952      -0.00342886
Ar      14.85197357       3.61641708       6.12691552      -0.02413133      -0.07178387       0.00332164
Ar       9.54612899       6.61142998       7.02038153      -0.02898098      -0.00497614       0.00317928
Ar      12.31379152       7.03059160       3.76846159      -0.06086000       0.00018987      -0.05146504
Ar       1.66809830      13.14094479       9.12008394      -0.09405529      -0.02897489       0.06527413
Ar      16.45393915      15.88286364       9.96402401       0.06226090      -0.05483390       0.04931868
Ar       4.44348280       9.91912233       4.83782525       0.00415436       0.03749882       0.06434868
Ar       5.14951293       2.90252403       4.86268598       0.02568669       0.03981723      -0.05308038
Ar       4.80872662       5.86456405      11.52231530       0.03910342      -0.00537996      -0.01607923
Ar       5.94007019       4.41915725       1.55631268       0.02313562       0.01979238      -0.01090008
Ar       0.28725523       1.29499661       2.48717610      -0.01688837      -0.04744504       0.03794244
Ar       9.24183026       6.21602895       2.99402729      -0.14987663       0.01247905      -0.01370944
Ar       7.67488110       5.27240959      13.74076978      -0.01521740      -0.02061373      -0.04401485
Ar       0.78055754      10.91383191       3.21983277       0.03390728      -0.05093622       0.08435417
Ar      10.95455033      16.55456938       4.72468809       0.09830630      -0.04293613       0.06397136
Ar       5.30749865      13.80717647       7.96794876      -0.01012619      -0.03394311       0.03444039
Ar       0.59235751      16.71008701      13.10141639      -0.04588055       0.01490293       0.00501032
Ar       5.94811779       8.96931522       1.91656697       0.04397779       0.03144570      -0.01089314
Ar      10.95891880       3.49102247       1.53834693       0.07002552      -0.00222231      -0.01446218
Ar       5.74131352       2.53366019      15.49147590      -0.08060524      -0.01589063      -0.00427144
Ar       8.95312793       1.19371784      16.97356168      -0.03965749      -0.02178685      -0.11749376
Ar      10.58647385      15.10675196      13.50518917       0.00211659       0.04419797      -0.00029008
Ar      16.32631351      11.64515949       6.04253251      -0.05222754       0.12783727       0.04166945
Ar       7.41717153      14.87777014      10.44105592       0.06725430      -0.01437151      -0.02401446
Ar       4.58382204       5.74004000      15.97454557      -0.07936651       0.12560272      -0.02812969
Ar      13.87206647      16.71436415      12.20715933      -0.01868142      -0.10687320       0.05163712
Ar       7.62302579       9.78172508       7.21094196      -0.09513643       0.01595501      -0.15655956
Ar      13.62192168       7.14660626       8.21789458      -0.04249609      -0.00850697       0.05777892
Ar      11.86854709       6.56997309      -0.00803373      -0.00156887      -0.00227913      -0.04509739
Ar       8.78426339       8.40725678      16.83671679       0.05624340      -0.05980453       0.01074560
Ar       2.06401187       7.66892091       3.97801331       0.11171148       0.03202117      -0.04688817
Ar      10.75879192       0.74573660      11.56675021      -0.04844206      -0.02216660      -0.00557312
Ar       8.27306249       0.63389263       9.05726132      -0.11134281       0.02046720      -0.03362458
Ar       0.09567946       2.22129246       9.47160584       0.03661704       0.00573449       0.01206957
Ar      16.70193257       4.90485025       3.50587287       0.08688922      -0.01673269      -0.03704601
Ar      10.11560418      12.82074686       3.79099807       0.05047630      -0.01590643       0.02174688
Ar       3.33919292      17.35470221      10.79545953      -0.02995752       0.04402754      -0.03025234
Ar       7.94491109      12.03998345       0.63576587      -0.01658674      -0.00717395      -0.03891061
Ar      12.81361046       9.86927692       5.85086172       0.05296222       0.00967526       0.05653531
Ar      16.37560978      15.99154988      16.18598014       0.00593248       0.00504115      -0.06930038
Ar       3.37758384       8.65779673      13.72367199      -0.00591671      -0.01467699      -0.01749591
Ar       0.64494285       6.37691156      15.18218764      -0.01130828       0.05132267      -0.01404678
Ar       3.95513838      16.71756310      14.95375096       0.01595024       0.04357149       0.01332472
Ar       6.24263999       2.54222394      11.53332273      -0.05045478      -0.01348600       0.02795604
Ar      13.68594658       4.41395894      10.67185998       0.10441749      -0.00591562      -0.01686306
Ar       1.72944429       3.90894155      12.72104171      -0.00051612       0.07865594       0.05595416
Ar       6.17841068       6.36190967       4.98374718       0.02591498      -0.00188070       0.02180670
Ar      13.69268336      12.13140100       8.60644772       0.02128875      -0.05911484       0.04422311
Ar       3.75149435      11.66325083       1.21777476       0.01526867       0.03762203       0.09041255
Ar       4.33718193       6.72309307       8.19204692      -0.02094499       0.02155941      -0.02103964
Ar       1.67542661       8.75096103      17.29592734       0.00156527       0.01664525       0.06196322
Ar       1.17630648       2.12658962      16.35955917      -0.01864148      -0.08572231      -0.08330408
Ar      15.62759100       8.36201221       4.05537272      -0.05044909      -0.01243080      -0.07559410
Ar      10.72997181       9.32549172       9.12731654       0.01114757       0.05576717      -0.08154692
Ar      14.03885838      13.06228519      12.83153399       0.07451601      -0.04276099      -0.00151561
Ar      16.80089806      14.73377673       3.24331850      -0.05371889       0.00716511      -0.00223320
Ar       2.61925859       4.40799849       1.43452901       0.03729838      -0.07563690       0.10537965
Ar      14.04818236       0.95397479       2.68560440       0.01153604      -0.03514284      -0.03239772
Ar      16.58798709       7.04288223      11.14504146       0.11197712       0.04990821      -0.03799306
Ar       7.40801337      11.48970280      10.36628662      -0.06883086       0.04435925       0.09922797
Ar       3.77616374      16.86859677       3.81722885       0.03846471      -0.11510909       0.02883699
Ar       7.25388012      15.77432749       5.42200522      -0.09868249      -0.01869047      -0.02018368
Ar       6.39819475      14.91099180       1.79784016      -0.09636209      -0.07067873       0.01161292
Ar       0.68566010      13.26983664      13.29647188       0.07066736      -0.07168939      -0.03027498
Ar       4.58716444       0.31830905       7.63298084       0.08481025       0.02561605       0.02383446
Ar      10.29483992       4.82407296      10.06266984       0.07212421      -0.07740762       0.07537264
Ar      13.42092434       9.24796832      11.23898097      -0.01118627      -0.03290269      -0.01592036
Ar      13.90594250      14.15453158       5.83880400      -0.06849066      -0.04350840       0.03579274
Ar       7.97921568       1.42953297       3.43264561       0.06951969       0.08740343      -0.11685422
Ar      11.72314036      14.67258870      10.33652497      -0.05345841      -0.03556798      -0.01398092
Ar       6.64252271      12.50369202       4.89482405       0.01665580      -0.01637228       0.04904042
Ar       4.04438646      12.84677495      15.30048545       0.02779922       0.04212685       0.00771648
Ar       2.36495269      15.27126771       0.97622973      -0.08689820       0.03991862       0.04302033
Ar      13.56489153      14.71215153       1.46518971      -0.09478075       0.03867426      -0.02216300
Ar      17.16209646      11.57777401      17.07201054       0.04159689       0.08322786       0.03875880
Ar       1.29879422       2.08864635       5.58272918      -0.11179033      -0.01195727       0.07532930
Ar      10.49858108      10.64356074      12.65510277       0.07019971      -0.00375470       0.03397874
Ar      16.83091250      10.57763857      10.54870934       0.02467583      -0.02407980       0.05894935
Ar       8.53624446       9.83250682       3.77871269       0.00631475       0.00802067       0.03778808
Ar       3.93047482      12.45972277      11.73912390       0.07119013      -0.03957892       0.04362462
Ar      14.66485168       5.81428916      14.24642084       0.07496077       0.13119165      -0.04742846
Ar       2.93143761      12.92811438       5.42615169      -0.01591614      -0.05222555      -0.00033412
Ar       6.87406003       8.93271760      13.85158348       0.12155901       0.01904707       0.09550376
Ar       7.49563725      16.97161348      13.53955440      -0.00427833       0.03758331      -0.07487512
Ar      11.63143041       3.22212944      13.81551668       0.00298676       0.15175997      -0.06220451
Ar      13.78476144      12.09611619      16.38053536      -0.00331899      -0.02713894       0.12710989
Ar       1.27776583      16.23624617       6.89681238       0.07671597      -0.05785349       0.01956249
Ar      15.44861936       0.29111074       6.01708281       0.01869053       0.02363927       0.01437950
Ar      15.12680152       2.45290604      13.58596086       0.02231793       0.01416912      -0.02973479
Ar       9.67384870       3.16077783       6.79225033      -0.09137633       0.03786324       0.01235332
Ar       0.10913857       6.66932750       7.83274465      -0.01071895      -0.04104469       0.08585226
Ar      16.34092133       9.76612335      14.32295063       0.01774590       0.05755578      -0.03312831
Ar       9.74716143      14.97869802      17.18087353      -0.01579718      -0.06467871      -0.09184727
Ar       4.28078809       1.22675061       0.88333487      -0.00023212       0.07817367      -0.05433717
Ar      13.23538406       1.19183924       8.98472848      -0.00992302       0.02571606      -0.00251156
Ar      13.05585353       1.12976440      16.75263751      -0.00914937      -0.06989695      -0.07408680
Ar      10.92458741       6.88843858      12.82594578      -0.02293345       0.05825071      -0.05431683
Ar       7.88456404      12.99425721      14.48065692      -0.03300938       0.03069799       0.03390747
Ar      12.65801922       9.04179202      14.81203932      -0.02419377      -0.01711068      -0.06421877
Ar      14.45220634      11.39286858       2.94819574      -0.08281625      -0.01585077      -0.01843702
Ar      14.95920156       8.04793013       0.28752046       0.00372594      -0.07471926      -0.12590211
Ar      11.18939475      10.75508503       1.03585017       0.00279812       0.06661345      -0.04701241
