108
Lattice="17.35 0.0 0.0 0.0 17.35 0.0 0.0 0.0 17.35" Properties=species:S:1:pos:R:3:momenta:R:3 pbc="T T T"
Ar       0.60383390       9.71027001       5.57995497      -0.00838728      -0.03419801      -0.07686096
Ar       4.96907509       3.72071888      10.90351292       0.07298862       0.07195384       0.00705031
Ar       6.94553388      16.45776332       6.24612983       0.01043509       0.00441953       0.07836373
Ar       1.31838413       2.54457971       9.91537189      -0.02465269       0.06842859       0.07672548
Ar       8.13202036       2.65327372      13.69365510       0.02598262      -0.06233783      -0.04547479
Ar       7.49386755      10.54057109      10.13710998      -0.11261579       0.01473316       0.09419651
Ar      13.71193608       3.19706755       2.06159241       0.06183731       0.01377289       0.04612027
Ar      13.39191015       1.90070907       9.25920655       0.03049352       0.06491508       0.07031339
Ar       8.55821564       7.87439499       8.26383356       0.06643809      -0.04027154       0.00451452
Ar      13.14461249       6.82938105       2.00907199       0.07475334      -0.04169828      -0.03849348
Ar       0.96269064      11.89944953      11.10279618      -0.01830052       0.02847389       0.07927985
Ar      16.96381011      16.01826455      11.14585316      -0.02471227       0.06643326      -0.01023056
Ar       4.02532779      10.62239279       4.58134509      -0.00586158       0.00230053       0.03648129
Ar       2.55750699       6.64195708       5.12402936      -0.01781213       0.01307202      -0.06077913
Ar       5.37172908       6.38844315      13.21604594       0.05477045       0.01141005      -0.02458649
Ar       6.49900185       3.90518385       0.73240340      -0.02620844      -0.00891244       0.02745029
Ar      17.13564763      15.78309541       2.95954599       0.00045136      -0.03262362       0.05444124
Ar       9.26097469       7.54227967       3.14255321      -0.02088858      -0.03105959       0.03709293
Ar       8.18211767       5.17565938      10.72012045      -0.03583115       0.02817694       0.00429335
Ar      16.37437820      10.58084762       2.39898195      -0.00419449       0.07197783      -0.08209630
Ar      10.97084058      16.41212300       5.82701877       0.16251150       0.10330741      -0.00616571
Ar       5.95723450      13.29329056       8.59070898       0.05639737       0.04727337       0.01691537
Ar       0.81406469      15.83947005      15.21388904       0.03377602      -0.00454829      -0.11208786
Ar       5.57980625       7.54820951       2.53966391       0.04182722      -0.04645301      -0.00845140
Ar       9.86419281       2.88361000      16.93943065       0.04603864      -0.02244123      -0.02755178
Ar       4.75491812       3.12386182      14.57696869      -0.05859240      -0.05702509       0.02789826
Ar       7.80744328       0.34458829      16.50680288      -0.07986120      -0.02110888      -0.04338361
Ar       9.75530979      13.85866155      17.13888197       0.09394818      -0.00447195       0.02752563
Ar      15.88037522      10.59830354       8.60373387       0.08509212       0.05521974      -0.07381677
Ar       9.37293520      14.64551957       9.80820426      -0.04413112      -0.07490557       0.00190065
Ar       4.89382965       7.35244325      16.40787784       0.00039456      -0.05346056       0.07868936
Ar      14.84625158      15.44422618      14.48674620      -0.02245967      -0.12760929       0.00858213
Ar       7.77419925      10.10050569       5.39117187      -0.01438466      -0.00006853       0.00298648
Ar      11.07812257       6.29115574       6.62781834      -0.07066193      -0.05339684      -0.02802266
Ar      11.49613598       5.72022870      14.24016821      -0.02061475       0.08469880      -0.02889664
Ar       8.57971280       6.42396988      16.55566944       0.00566825      -0.08857002      -0.06836052
Ar      16.92458691       7.07450372       3.41136314       0.03360319       0.01416023      -0.03083180
Ar      11.87375064       0.97055027      12.27021887      -0.02717826      -0.03996458      -0.00602078
Ar       9.77976682       0.49047945       9.20093960       0.00263022       0.01961011      -0.06484407
Ar       3.13910507       0.71166784      12.38127119       0.02208439      -0.00653494       0.17314729
Ar      14.54087412       4.71120883       5.43059722      -0.01038847       0.02390966       0.06623118
Ar       8.50921610      14.79139056       3.30106141       0.07177546      -0.07909881       0.06965890
Ar       4.90378246      13.13445766      12.17234200      -0.05673085      -0.06865977      -0.04352038
Ar       4.11293267      11.08276780       0.56432452      -0.06237036      -0.03332650      -0.02377247
Ar      14.34044679       8.42328805       6.24839052       0.01124463      -0.07866938      -0.02085742
Ar      15.94354415       0.06973416      17.30030291      -0.03633919       0.01981348       0.07165775
Ar       4.51432398       9.48206671      12.30009075       0.03617992       0.02897232      -0.04300618
Ar       2.30873441       5.59580615       0.66484272      -0.07294658      -0.02550468      -0.03219581
Ar       4.76024269      16.18887524      15.97330787       0.09457747       0.00494226       0.02865461
Ar       6.17427724       0.28676188       9.47992277      -0.11932978       0.08352580      -0.00967505
Ar      15.50437465       4.58864113       9.21576159       0.01006019      -0.01923441      -0.06636777
Ar       1.80133754       4.69344251      12.92101078      -0.04568815      -0.01389548       0.04888316
Ar       7.56125523       5.71370402       5.88743484       0.01180809      -0.01214521      -0.01080661
Ar      12.46552653       8.34915320      10.02127755       0.00996368      -0.01285338      -0.01647325
Ar       1.97317390      12.80631738       2.37907399      -0.04663710       0.02294369      -0.03206957
Ar       5.01773697       8.23812117       6.83932138      -0.03047703       0.07431779      -0.01193886
Ar       1.33425852       8.87399483       0.52123212      -0.05787034      -0.08691276      -0.01189619
Ar       0.88352570       2.37153204      15.31185815      -0.03692488      -0.06124786      -0.03336813
Ar      16.08796734       5.32289480      17.30810769      -0.01231699       0.02837907       0.01877287
Ar      11.10671254       9.62941478       6.82152333       0.02302791      -0.02981128       0.07827125
Ar      14.19811914      13.46863182      11.70921870       0.00170001       0.03559481      -0.00718959
Ar       2.87426118      16.77850916       5.39074610      -0.02042904       0.07263406       0.00156535
Ar       0.61433590       2.23045237       2.09032890       0.07230211      -0.01333397      -0.00120906
Ar      14.43590692       0.39564832       4.97112615       0.01443450      -0.10722435       0.00483497
Ar       3.57007432       6.62813119       9.72001975       0.03055572      -0.02325519       0.04182288
Ar       9.13651633      13.25825660       6.51543578       0.02581449      -0.03392485      -0.07932774
Ar       5.64936048       0.36169321       3.01667215      -0.01883862      -0.00553503      -0.06120564
Ar       8.16675738       2.46271657       4.11447608       0.00066046      -0.05994503      -0.06398199
Ar       5.79974905      14.05941032       1.29120838      -0.04200014      -0.08207252       0.03625866
Ar      16.05541174      11.87998344      14.33702801       0.05652624       0.00380050       0.02779713
Ar       4.52177423       3.41404155       4.36831430      -0.08585878       0.00433642      -0.10490860
Ar       9.46822192       3.16912660       7.24285966      -0.03091771      -0.03540871      -0.01408037
Ar      13.12929385      10.00102130      12.95570765      -0.06074819      -0.01979935      -0.01610443
Ar      12.96832279      13.52270631       6.13423041       0.02615146       0.03753148      -0.07771159
Ar      11.14046949       0.36798733       2.33268424       0.00960892       0.00667073       0.06792222
Ar      13.18265098      15.76780373       9.27038766       0.07776260       0.03739668      -0.00816778
Ar       4.78028489      14.07149857       4.77255272      -0.01998663       0.01008978       0.06765505
Ar       2.30922810      12.35448191      14.74676102       0.03287925       0.08568684      -0.05679291
Ar       2.85846543      15.89423922       1.52620686      -0.00966738       0.00909704       0.01862788
Ar      13.20774084      14.80291768       1.62996024      -0.01345965       0.02101038       0.04681348
Ar      16.41896307      13.47132623       0.32110783      -0.07414177      -0.07275031      -0.07967049
Ar       0.90683209       2.27273477       5.77904481       0.00579548       0.04078088      -0.04205638
Ar      11.43407305      11.86216827       9.48856493      -0.00991495       0.00931758       0.03299602
Ar       0.44407996       7.67293832      11.41083545      -0.01483882       0.01026141      -0.00891252
Ar      11.58348700      11.57106704       3.29975405      -0.02314911       0.02395973       0.00828919
Ar       6.84606804      13.48955251      15.02986392      -0.08681708       0.04500183      -0.10202512
Ar      15.36421589       5.60978533      13.55422548       0.00741539       0.03505299      -0.02145342
Ar       2.45770426      12.65783972       7.25851044       0.08252094       0.01968197       0.09551521
Ar       7.28995225       9.90730593      15.52180049      -0.00581818      -0.06099842       0.11246555
Ar       6.98813271      16.40247480      12.78467294      -0.03587909      -0.07393421      -0.02472461
Ar      11.78183505       4.87813389      10.82475226      -0.06523968       0.13012870       0.01889046
Ar      13.11809216      12.75634122      16.18295485       0.06606143      -0.05267626       0.01971343
Ar       2.93887661      16.53425387       9.09625688       0.02039534       0.07272008       0.00864309
Ar      16.89588711      16.58806983       7.43420077      -0.01513680       0.00117562      -0.03164208
Ar      13.90212774       3.11340172      15.64286581      -0.01487243       0.00285970       0.05295692
Ar      11.21483943       4.35227883       3.94648757      -0.01678609      -0.01408477      -0.07971239
Ar       0.21654994       7.07829678       8.06105903       0.11805021       0.02605916       0.05227251
Ar       1.84432025       8.25374414      14.46485280       0.14577579       0.09645573      -0.04835027
Ar       7.33484328      10.56604485       1.65101009      -0.06457539      -0.06171510      -0.04890260
Ar       3.77356835       1.98586429       0.45589070       0.02633546       0.07820203      -0.05165426
Ar      15.95491981       2.57125185      12.58337892       0.05853742      -0.03507931      -0.00760455
Ar      11.62439684      16.97665748      16.33123058      -0.03319458       0.06605156       0.06830390
Ar       9.35553840       8.73970902      12.09906079      -0.00696020       0.04584107       0.07436453
Ar      10.99966062      15.17223562      12.90677611      -0.01385232       0.01584894       0.03471406
Ar       9.83942079      12.04069859      13.60326036      -0.02480203      -0.04595406       0.03994278
Ar      16.51176399      13.08499256       5.18674526      -0.06771724      -0.01823695       0.02430676
Ar      14.10748544       8.94540764      16.15849530      -0.01085702       0.00804777      -0.05004702
Ar      10.91780882       9.82546895      17.29505447      -0.01821507       0.06651125      -0.01243169
