108
Lattice="17.35 0.0 0.0 0.0 17.35 0.0 0.0 0.0 17.35" Properties=species:S:1:pos:R:3:momenta:R:3 pbc="T T T"
Ar       0.64414718      10.34203391       3.09628355       0.03069600       0.03532420      -0.01174610
Ar       2.47763132       1.22677387       9.85666274      -0.06102836       0.07627446      -0.01790876
Ar       4.77591407      15.76382517       7.10713330       0.06802494       0.01994667      -0.02940018
Ar      14.19596952       1.09990644       4.55750316      -0.03172732       0.08311954       0.05931782
Ar       6.90270249       3.02879025      12.26816344      -0.03650848      -0.01995636       0.02285460
Ar      10.03899491       8.37572470      12.03354428       0.13929653      -0.09374411       0.11708643
Ar      15.10097695       3.98103001       1.83690470       0.01614156      -0.01173920       0.01753430
Ar      13.76489357       2.25203150       7.84303715      -0.00837083      -0.09303458      -0.04672292
Ar      11.07532402       7.71409089       8.46511908      -0.11054436       0.07208811      -0.06301805
Ar       0.38372239       5.78702090       4.63044823      -0.09133555      -0.02410018       0.09055981
Ar       0.66247023      13.86767822       9.24665012      -0.07192584      -0.00442807      -0.01767922
Ar      15.00866962      16.35115110       8.23500520      -0.02507715       0.00096171       0.08375899
Ar       5.78747638       8.64574803       6.03953145       0.15527926       0.03013693      -0.05588362
Ar       1.76448503       9.46648201       6.97411616       0.01437947       0.16280781      -0.00911439
Ar       3.66124153       8.39169066      10.19703230       0.01019517      -0.05179183      -0.05615322
Ar       7.64604238       6.35936908       0.50672462      -0.00253849       0.03282129      -0.02921564
Ar      11.45720886       1.92012126       2.06053844       0.04749493      -0.03551039       0.02380899
Ar      14.56268602      11.97718497       2.06984517       0.00585695      -0.06413852      -0.05905681
Ar       5.81897027       5.94111608       3.57533732       0.05758756       0.07852148       0.01208765
Ar      11.73389602      15.00034450       2.75067337       0.01851213       0.02239460      -0.05523991
Ar      11.11423863       0.41530119       6.06889015      -0.03415470       0.00310180       0.06279351
Ar       6.89005537       9.67242643      10.57472008      -0.04751675       0.02151473      -0.11485138
Ar       1.52476153       9.80358209      13.87185633       0.05146054       0.04455153       0.00724629
Ar       8.87694381       6.64649272       5.53895123       0.03003791       0.02799234      -0.00939478
Ar       9.54157749       2.92130347      16.68604597      -0.06382550       0.07048901      -0.04593337
Ar       5.98396563       2.82969911       0.32891685      -0.00435071       0.03293250       0.05296404
Ar       8.37761095      17.33853438       1.20908170       0.10298932      -0.03913576       0.12472298
Ar      10.86865512       8.44464918       0.84392014       0.03684033       0.04404040      -0.08176993
Ar      10.52450837      15.73175288       9.16315325      -0.02354018       0.03630871       0.02801469
Ar       9.65542897      11.89172620      10.29325666       0.10504000       0.01075497       0.00604597
Ar       4.01373861       4.82751635      10.77211720      -0.06447135      -0.03882915      -0.01851789
Ar      14.29309165      13.88907562      16.02538839      -0.00510004       0.03419102      -0.07020266
Ar       8.92527407      10.07991910       6.92017145       0.13453935      -0.03746217      -0.00349170
Ar      12.16126844       5.00487224      10.25221457       0.05894685      -0.00106008      -0.00009745
Ar       0.01043852       7.92332875      17.18548854      -0.01770912      -0.00861061       0.07714883
Ar       9.13008488       5.77275595      14.43558187      -0.03815684       0.03252591      -0.02836120
Ar       2.31540754       6.73587524      13.20540806       0.00641243      -0.03795965      -0.04382131
Ar      10.65220903       2.62863246      13.40676316      -0.01257388      -0.08080425       0.09587142
Ar       8.91345413       2.28772375       9.13505127      -0.11033985      -0.10146693      -0.07656082
Ar       2.94423029      15.22267517      11.53683496      -0.03697172       0.02434472      -0.03067562
Ar       2.69512257       4.05001032       1.81447277      -0.11836057       0.01936249      -0.00697732
Ar       4.10956338      16.75794511       0.48105966      -0.01780152       0.03380037      -0.06312762
Ar       6.48038735      13.46803610      11.24878924       0.04697352      -0.00521816      -0.00702876
Ar       2.84871630       7.91111024       2.06343127      -0.06746011       0.02338584      -0.07455671
Ar      17.22946030      10.56823956      10.17298306      -0.01250337      -0.08025617      -0.02836411
Ar      14.80325178      16.14820417       1.33550274       0.00243111       0.01520913       0.02289801
Ar       5.07545425       9.73603894      14.20690493      -0.02887846       0.06538681      -0.04605861
Ar       6.21946914       6.56643796      13.12913766      -0.00389976      -0.02323244      -0.03246921
Ar       3.34293470      13.37582593      14.68490433      -0.01814439       0.03245904       0.03106295
Ar       5.96136338       0.19959543      10.05880971       0.00739163      -0.05941080      -0.03140201
Ar       3.03097329      11.69179143      11.51558561      -0.06217976       0.07719431       0.05087973
Ar       3.77761874       3.38115224      14.70381822       0.06883519       0.07497743       0.00539412
Ar       4.18111151       6.35174942      16.61969851       0.00448647       0.08550915       0.01570063
Ar      13.79354987       8.76392286      10.13061916      -0.01819449      -0.06945566      -0.11436512
Ar       2.99178809      16.04109141       4.11342035       0.01450975      -0.02080285      -0.00625264
Ar       2.90498585       5.74757535       6.81490621      -0.04076903      -0.01506798      -0.04123366
Ar       3.18467551      10.16395384      17.10096109      -0.05035607       0.00016050       0.03196794
Ar      16.79531320      12.94906493      13.60298057       0.04207817      -0.00048471       0.04384718
Ar      16.89704510       4.66418647      16.04634469      -0.01526216       0.02667890       0.02335833
Ar      12.62901641      11.80541943       7.86723700      -0.05643018       0.02266568       0.03237810
Ar      14.51759152      13.18551144      10.38022207       0.01113868      -0.03888057       0.15828708
Ar       0.37968189       2.84276066       7.02006730       0.01408894       0.01018708       0.00006329
Ar       0.53109970       1.71700449       3.31577874       0.03139550      -0.05174330      -0.06313677
Ar      12.74798972       5.41202163       4.04290349      -0.04100597      -0.10257145      -0.05821687
Ar       0.78107002       6.15717914       9.97398630      -0.13201835       0.07226648       0.06535786
Ar       8.05370344      13.81462344       7.64610966      -0.04634800      -0.03443934      -0.01512229
Ar       3.76883660       2.57699544       6.23274355      -0.06062889      -0.04336239       0.01418734
Ar       7.49325671       0.73055417       6.51842731      -0.00551081      -0.04832439      -0.03386953
Ar       3.59911090      12.89939794       1.85105633      -0.01828427      -0.05245728      -0.07734651
Ar      14.33088444       9.72617958      16.21949226       0.04571206       0.03564641       0.03366458
Ar       5.58242411       1.27045439       3.42623749       0.04967130       0.00947283       0.05049471
Ar      11.02573135       4.33122197       7.12926154       0.00806299      -0.02871245       0.00669799
Ar      12.63916205      10.61559732      13.17474295       0.02915549       0.03875125       0.01825701
Ar      13.46394450      14.53029344       5.72408140       0.02350709      -0.08914530      -0.00179647
Ar       8.39919772       3.27387698       4.13156755       0.00945076       0.04527557      -0.04343831
Ar      12.82096393       0.17718303      11.99026029      -0.02078150      -0.00715081       0.07254316
Ar       8.48252319      12.42519808       1.70213518       0.09445183      -0.06785533       0.00828285
Ar       8.86068244      11.98749758      13.76504254      -0.05602004      -0.06124571      -0.01494538
Ar       1.02248070      15.19485928       0.70681850       0.01831644      -0.07657094      -0.00537606
Ar       8.40240588      15.45758189       4.09081094      -0.05812847      -0.02011166      -0.03034790
Ar       0.07057959      11.61719583      17.21604459       0.02501909       0.05644457       0.04981897
Ar      15.13717460       5.32217107       7.22937678      -0.04589677       0.05281310       0.02388813
Ar       8.59731484       5.48147371      10.12896617       0.02862388      -0.04577830      -0.08068303
Ar      15.84610325       8.04553622      12.52987117      -0.08011263      -0.00985063      -0.06119657
Ar      11.06797555       9.66308915       3.97053544      -0.01370403      -0.07835356       0.00753220
Ar       6.86273125      14.77470343      15.75555331      -0.08152615       0.06294635      -0.10544401
Ar      15.35411483       4.52483601      12.04291954       0.01723295      -0.05292058       0.02084010
Ar      16.83426029      14.37353747       3.70796683      -0.04015028       0.06359177       0.11618105
Ar       7.63123405       9.07579489       3.21488993       0.18142236      -0.08462613       0.02733663
Ar       5.99400346       0.52025643      14.79085291       0.05573959      -0.02000579       0.10955620
Ar       6.63696401       4.50140367       7.13969075      -0.06171954       0.00095774       0.05009134
Ar      11.47913534      11.66586793      16.52615463      -0.02407848       0.01842675       0.16299003
Ar       5.76804332      12.26032274       4.46615637       0.02835317      -0.02668344      -0.03386403
Ar       0.92387567      16.63095392       6.91059342      -0.06115055       0.04396451       0.06509980
Ar      13.68909908       2.89004373      15.57739072       0.09945687       0.01730898      -0.01947613
Ar      14.39205928       8.97241077       6.69598626      -0.03695843       0.04209766      -0.01420822
Ar       5.04344146      11.47836317       8.17412526       0.07934909       0.00972830       0.02048531
Ar       7.51889256       9.46151084      16.46234659       0.01360401       0.06034429       0.02102900
Ar       2.58140032      13.17313729       6.07920335       0.04432639       0.04832445      -0.01381556
Ar       0.50656332       1.23292297      16.84888957      -0.00025779      -0.03440549      -0.03956796
Ar      15.99437099      16.03535931      11.82024402      -0.00020831       0.00576166       0.08156643
Ar      11.41477144      17.12965824      16.20178847      -0.03616218      -0.11839844      -0.10749830
Ar      12.67315397       6.02433060      13.71454983      -0.03207618      -0.00005059       0.01810758
Ar       8.98585825      16.29226001      12.68278107       0.03565078      -0.01431352      -0.06166103
Ar      11.85377723      14.04235538      12.87889202      -0.02250359       0.10794298      -0.00614756
Ar      16.25595081      11.96287822       6.27457262       0.08693832      -0.07393342      -0.02563652
Ar      14.75404698       8.11380958       2.72084313       0.06985083       0.03358134       0.03941080
Ar      12.11998401       5.24306378       0.41352092       0.00628260      -0.01017671      -0.04162508
