108
Lattice="17.35 0.0 0.0 0.0 17.35 0.0 0.0 0.0 17.35" Properties=species:S:1:pos:R:3:momenta:R:3 pbc="T T T"
Ar       1.14107457       9.69093896       7.47953202      -0.02410450      -0.08163574      -0.02793737
Ar       6.39724915       4.32589269       7.74919251       0.02711569       0.03177484       0.03918353
Ar       9.06878574      13.45627178       7.11403806      -0.05211359       0.11912663       0.04905663
Ar       1.89766344       3.36678906       9.18822064       0.01488277      -0.04449115      -0.02156153
Ar       9.38731930       4.18982720      16.09374353      -0.02518312      -0.04556479      -0.05635953
Ar       7.61492954       7.17947609       9.48175358       0.07776808      -0.03924662      -0.08016249
Ar      15.62832649       3.81616831       0.07690715      -0.05209880      -0.03722574      -0.02180882
Ar      13.42178187       3.55353195       6.71797453      -0.00993395      -0.00103454      -0.03103019
Ar       9.93478869       7.29017668       6.43966776      -0.02568505      -0.01169040      -0.03610767
Ar      12.57822862       7.04286284       3.92004648       0.01959974      -0.01604363       0.02554008
Ar       1.00838823      13.37876727      11.40205986       0.02331699      -0.07707055       0.06390786
Ar      15.20820699      15.26498399      10.24733696       0.00280721       0.04014421      -0.10025046
Ar       3.48250065       9.94052192       4.89015171       0.01942593       0.03295112       0.03403838
Ar       4.62182304       2.99994349       4.32692752      -0.00458852       0.01759004      -0.00966081
Ar       5.22259642       5.96653176      12.22817241       0.05726878       0.00548890       0.01036187
Ar       5.53444627       4.99764930       0.63770558       0.08051210      -0.06279648      -0.05080865
Ar       0.95920062       1.41240585       2.07872322       0.05993891       0.02626543       0.00164598
Ar       9.06897842       5.72905806       2.35883962       0.03720629      -0.00974238       0.02131200
Ar       8.51172815       3.74713109      12.41645449       0.02243772      -0.00327942       0.00079371
Ar       0.29108912      11.25692608       4.37939812       0.01836755      -0.08193962       0.11554003
Ar      11.06396710      16.98041267       5.65685696       0.00921722       0.00265535       0.08358490
Ar       5.45139903      13.26375820       8.16702358      -0.02875876      -0.02096629      -0.01270991
Ar       0.03160821      16.37848216      13.22817097       0.08168561      -0.03477094      -0.01312304
Ar       5.89819146       9.01634726       2.13665146       0.01143192       0.06747209      -0.04620393
Ar      11.87320371       3.89308683       1.04698298      -0.11269736       0.01968544      -0.00507332
Ar       5.31112342       3.22373701      14.52503683       0.05156585       0.04033713       0.00644914
Ar       7.84529840       0.02424636      16.37238991      -0.06311394       0.02996110       0.15540633
Ar      10.71831159      14.95803249      14.65156289      -0.10829596      -0.01762377       0.06433747
Ar      16.65423987      13.49515969       6.99941222      -0.09542120       0.12050316       0.04150207
Ar       7.97472958      14.95889948      10.33792395       0.07664479       0.06039687       0.00955478
Ar       4.99643423       7.81875385      16.01554686       0.04819020       0.07214887      -0.01968109
Ar      14.15397017      15.79401312      13.99245605      -0.00438086       0.03653137       0.15913445
Ar       6.89975868      10.01740772       6.95430980       0.03924144       0.00989588       0.07593343
Ar      12.82225648       7.39948363       8.74534633       0.01763285       0.02923316       0.01457375
Ar      12.65153308       6.79173781      16.76115672       0.01202846       0.07304531      -0.04825587
Ar       9.07813874       8.66979503      17.27215760      -0.01130447       0.02731543      -0.01317788
Ar       1.81443720       6.02119083       4.70657331      -0.05677688      -0.05574787       0.01593896
Ar       9.98838195       0.56083502      11.73072018       0.07118664      -0.02263619       0.00910848
Ar       8.84754974       0.82632763       8.43553289       0.00233088      -0.09800920      -0.01607453
Ar      16.53654296       1.32354695      10.13064624       0.00525635      -0.08121073      -0.05948176
Ar      15.94316659       4.01659544       4.05998051       0.01906004       0.02629357       0.08050990
Ar      10.06707044      14.15773453       3.48147142       0.04833011       0.07282193       0.08503071
Ar       3.76552826      16.41940064      10.98714435       0.04635092       0.01160996      -0.03305863
Ar       6.88388699      11.26752412      16.40638142       0.02721952       0.09105194      -0.08454735
Ar      13.39404941       9.46988544       5.86108365       0.06284970      -0.10236288       0.03309705
Ar      15.94859829      16.68719583       0.12773311       0.05259094      -0.07553443      -0.03124890
Ar       3.31260753      10.17552059      13.08217792       0.06183952      -0.05227453      -0.02521352
Ar       1.91252610       5.20424623      15.04610977       0.10728875      -0.06026895      -0.11914781
Ar       4.39226523      16.34042860      15.50580201       0.03763649      -0.10240793       0.07477897
Ar       5.24115163       2.46915934      10.88322753      -0.06151404      -0.08437369      -0.06690071
Ar      15.43346889       4.56465227      10.39860378       0.02460633      -0.11306022       0.07529960
Ar       2.20218809       1.71121612      12.37282474      -0.02041913       0.01551492      -0.01110787
Ar       6.45162752       6.98793849       5.14835441      -0.04125806      -0.03498821       0.00627373
Ar      14.18618653      11.61381964       9.18355220       0.02198342       0.01804525      -0.00982778
Ar       3.25242277      12.70082137       2.43625201      -0.03817819       0.04457285      -0.01834563
Ar       4.40148588       7.93738443       8.34797342       0.01003876       0.02300374      -0.02864245
Ar       1.81429066       8.37040149       0.46666658      -0.11216774      -0.00551237       0.08821064
Ar       1.22737880       1.85707110      15.92330880       0.09049537       0.04376306      -0.00737203
Ar      16.04941402       7.99139191       4.16228987       0.06771641       0.03038725      -0.09867468
Ar      10.14467810      10.32333670       8.30513503      -0.05449763       0.05500680      -0.04018705
Ar      14.93758157      12.39621809      12.68317338      -0.05178697       0.02808710       0.00523405
Ar      16.89421247      15.05478621       3.27082002       0.01401999       0.09558402       0.05447902
Ar       2.38091658       4.22532576       1.46178573      -0.00899683       0.06125696       0.05768494
Ar      13.99335036       0.29564381       3.04390024      -0.08195158      -0.06950218       0.05936158
Ar       1.37273540       6.86760527      11.22729805       0.04660392       0.01058987       0.02315107
Ar       7.32846327      11.28559804      10.44268139      -0.05381461       0.06315288      -0.06604262
Ar       4.02757865      16.61765986       4.29408107      -0.13595139      -0.02106847      -0.08808919
Ar       7.23479238       0.10269865       4.85446941       0.07368739       0.05550186       0.02400286
Ar       5.31053799      14.94116301       1.38348155       0.02344354      -0.02441661      -0.04103675
Ar       0.19864705      13.26976900      14.90715828      -0.00166104       0.05832397      -0.02803379
Ar       4.58304830       0.44052564       7.64733882      -0.02961095      -0.08394247       0.09380881
Ar      10.19189984       4.54519719       8.81267503      -0.06765357       0.01693634       0.01059085
Ar      14.01513477       8.44265127      11.83885165       0.03079413       0.00666713      -0.03025217
Ar      12.51549928      12.99193996       6.29819964       0.02296928       0.01674737      -0.01490144
Ar       9.47262557       1.29839782       1.77531073       0.11793217      -0.02893487      -0.02682644
Ar      11.69007655      14.70613156       9.94093900       0.02126974      -0.05270109      -0.04787895
Ar       6.49655119      12.02683309       3.60829362      -0.06624577       0.02954173      -0.03895839
Ar       4.03552890      12.79320901      15.29036623      -0.01505570       0.04973328       0.01531880
Ar       1.97022792      15.12604713       0.36606304      -0.01055982      -0.08814629      -0.03465007
Ar      12.47920336      14.84329078       0.87394181      -0.06043055      -0.04836519      -0.00127715
Ar       0.08855702      11.73761507       0.95721009       0.00830949      -0.04868378      -0.06063369
Ar       1.38083754       1.90661682       5.91873081       0.02916746       0.00100958      -0.01638099
Ar      11.20985726      11.81710452      11.76418707      -0.04306409      -0.03597215       0.04930204
Ar      17.29403699      10.02750171      10.83614623      -0.00801890      -0.02831774       0.09916500
Ar       9.95335673      10.65864183       4.52937891       0.08240175      -0.00671318      -0.07865807
Ar       5.01653154      13.53626569      12.07532907      -0.01155436       0.01873356      -0.00373397
Ar      15.39862401       5.76753973      14.55995561       0.01892085      -0.09162284       0.02147080
Ar       2.84305644      13.20153348       6.15212949      -0.10114251      -0.01683398      -0.06629590
Ar       7.13019823       9.34491681      13.23998933      -0.02316405      -0.07195799      -0.07972499
Ar       6.72097659      17.35631173      12.94526938      -0.08553061       0.11715397      -0.04469956
Ar      12.49272516       3.62826354      13.05953731       0.02057568       0.09443882      -0.06317374
Ar      14.42402352      12.64628778      16.51910259      -0.00759982       0.06729054      -0.03943145
Ar       1.37936358      16.04988571       8.40957473      -0.02660669      -0.05612464      -0.02730103
Ar      15.13455127      16.77858152       6.67447173       0.00195239       0.03032169       0.03910875
Ar      15.50887976       1.93186963      13.78203789      -0.01633208      -0.00390215       0.06164076
Ar      10.02868489       2.80520875       5.28657754      -0.00857561       0.04129458      -0.02210717
Ar       0.12896381       6.14905909       7.95783545       0.01790789      -0.02393623       0.17325580
Ar      17.21255846       9.47856360      14.46537786       0.06686308      -0.02027757       0.04585536
Ar       8.50749086      14.25910668       0.28041303      -0.06772299       0.03169204      -0.03625837
Ar       4.96633840       1.54062880       0.92421796      -0.04694092       0.02470882      -0.10440016
Ar      13.12606484       0.92677149       9.67712696      -0.06316332       0.05186829       0.05213386
Ar      12.51601999       1.11131527      16.46599829      -0.07877030       0.11522773       0.06710150
Ar      10.05537283       7.38762241      12.47771985      -0.03014428      -0.10056366      -0.02968563
Ar       8.19380666      12.87881964      13.63686385       0.07492439       0.03435559      -0.04356478
Ar      12.85789982       9.94941747      14.61656352       0.00473670       0.01575836      -0.00849029
Ar      14.27845883      11.15330835       3.05414412      -0.01917948       0.06464493      -0.04844765
Ar      15.49327013       9.01677850       0.59061701      -0.01760221      -0.05743224      -0.01346808
Ar      11.28849792      11.13348600       0.87537302      -0.00022336      -0.04229001       0.05537545
