108
Lattice="17.35 0.0 0.0 0.0 17.35 0.0 0.0 0.0 17.35" Properties=species:S:1:pos:R:3:momenta:R:3 pbc="T T T"
Ar       0.07590479      11.75780482       5.31132348       0.00921756      -0.00069991      -0.01367910
Ar       7.90918916      11.08799479       6.68437897      -0.00285935      -0.03138190       0.05182060
Ar       5.12889349      11.50700947       2.42689733       0.02537486      -0.10295351       0.13347978
Ar       0.41868687       6.01444037       9.63566952       0.02602920      -0.02743714       0.12020393
Ar       9.12217022       4.97250956      14.96575302      -0.00543317       0.03711377      -0.03769486
Ar       5.19942353       8.33283971      11.35806144       0.17740239       0.05363361      -0.01506397
Ar      16.66966302       4.55577049      13.20539342      -0.05628012       0.08687924      -0.02507055
Ar      14.20082004       5.04171403      10.27219357      -0.00365239      -0.01686326       0.08300233
Ar       8.07390132       4.11065543       4.98413436      -0.11341639      -0.01309717      -0.00424070
Ar      11.57629616       3.41106606       5.41427125       0.05565858       0.01309695       0.10150217
Ar       1.80112119      13.87045679       8.56645303      -0.16762751      -0.01476587      -0.04937438
Ar      14.34698574       0.24760497      17.21721339       0.01531333       0.00818023      -0.11120056
Ar       8.60903526       8.15880373       0.66362840      -0.01704864      -0.02571346      -0.02037213
Ar       5.24993184       2.47386098       6.40700595       0.04391062       0.02190999      -0.02675832
Ar       6.17876088       7.18920082       7.60460834      -0.07589957       0.08117227      -0.04860094
Ar       4.71668205       2.32489384       0.51037483      -0.05045698      -0.09507563      -0.04886287
Ar       0.36330725       2.08614504       2.27943831       0.04810212       0.05767611       0.00624616
Ar      11.97841089       2.51927248       2.19644127      -0.08012867       0.04750647      -0.00979298
Ar       7.04830844       4.77407051      11.25162611       0.10223201      -0.04989008       0.03586082
Ar       0.73401594       7.49318035       6.31889361      -0.02298068       0.01734678       0.06430480
Ar      12.95660592      15.82063705       5.24454951      -0.03984237      -0.07648298      -0.00730386
Ar       8.14961819      15.63647334       8.12997563      -0.03964243      -0.03379384      -0.01471444
Ar       5.28553854       2.05412147      13.29674039      -0.03178756      -0.04463685      -0.09307116
Ar       3.77318647       8.46274622       4.66122287       0.10628431       0.08050929       0.06391923
Ar      10.17267399      16.63850558       1.75356176       0.07679520       0.02243153      -0.01734597
Ar       6.49484598      16.46043714      15.54742220      -0.03563210       0.04786677       0.07949012
Ar       5.73439993       5.45949225      15.96307798      -0.01969525      -0.10832854       0.07048835
Ar      11.76319270       0.49330766      14.34939971       0.03817354      -0.13527933      -0.02803522
Ar      13.13031147      11.99091203       7.85820811       0.06130226       0.08376466       0.04262064
Ar       4.30991568      15.60014930      11.75937152      -0.02179607       0.02131408      -0.00692842
Ar       5.02587232       8.29623651       1.17131001       0.04358207      -0.07797501      -0.02274733
Ar      15.65839973      15.00977626       2.93029592      -0.08318132       0.04156139      -0.00949572
Ar       7.72300875       7.84488385       4.67408295      -0.04711131       0.01681151      -0.05080327
Ar      11.95666691       6.13091065       2.60482139      -0.05323160      -0.03581865      -0.01134244
Ar      15.10823427       4.01466356      17.25452316       0.03017348      -0.01956813       0.07493265
Ar      15.97421634       7.06422632      15.37885156      -0.05463941      -0.05018350      -0.02856139
Ar       2.36036422       4.52424276       5.16902482       0.00560516       0.05543111      -0.02463054
Ar       8.64196419       1.74662347      12.96909848       0.04575528      -0.03934713      -0.05217797
Ar       6.94572647       1.42481150       9.85445674       0.00930769       0.03580885      -0.01906824
Ar       1.99031031       1.89365664      11.63243816       0.01692175      -0.07240129       0.02951727
Ar      15.31329952       5.01450320       6.46110937      -0.06733193       0.01501502      -0.03799372
Ar      11.11416323      10.09893393       4.86877498      -0.08515408      -0.00622959       0.05242476
Ar       2.82280353       0.30551204       8.63521785       0.00048163       0.03553750      -0.05783095
Ar       6.74707060      11.81553537      16.26205391      -0.04876635      -0.04649846      -0.02038302
Ar      12.11106409       6.88802252      16.34470511      -0.01367619      -0.02874736       0.01067998
Ar       1.38666635       3.28899000      16.50526859       0.02055155      -0.04097858       0.04959361
Ar       4.39266514       9.41880959      14.81233087       0.07661322      -0.15124484       0.06762291
Ar       1.25013477       5.80007263       2.17968477       0.03670229       0.12686315      -0.03550706
Ar       3.89605366      13.66238886      14.88170922       0.13094910      -0.00993270       0.01771427
Ar       4.27731329       4.21432827       9.33591479      -0.03053877      -0.08908208       0.02924536
Ar      14.21351245       1.42625357      11.42099059      -0.00912676       0.01165168       0.01449461
Ar       2.88977949       5.24238815      13.26425203      -0.07042559      -0.09500936      -0.00244104
Ar       8.37413296       4.41280163       1.28942692       0.02472094      -0.08266863      -0.04961825
Ar       9.46900424       8.88192487       9.73569625       0.07858637      -0.01392284       0.03116136
Ar       2.57923749      11.87787020       0.18342800       0.00299283      -0.04728882       0.03323734
Ar       3.37714194       9.61470707       8.63266438       0.00966514      -0.03745788       0.07169903
Ar       0.39709496      10.09867440      14.66382486       0.07860934      -0.04735862      -0.00289527
Ar       2.95035063       0.25999130      15.49531787       0.05040130      -0.00581715       0.07642705
Ar      14.61220608       9.18936512       5.51077688      -0.04167049      -0.04014091       0.01379927
Ar       9.81638940       6.11165896       7.12344011       0.05025601       0.03903260      -0.07634573
Ar      14.19317583      15.64284142      13.18457542       0.05172599       0.01564110      -0.00821240
Ar       4.22793000       0.24225684       3.07669296       0.07062647       0.07772422      -0.02982138
Ar       5.22046506       5.01739730       3.06095365       0.02128325      -0.01371366      -0.04043742
Ar      14.71758554       1.75754657       4.61641116      -0.03707574      -0.00177285       0.04032441
Ar      16.14225063       9.94995118       8.50757100       0.00891196       0.00667531       0.01961225
Ar       5.73037199      12.50444936       8.96178723      -0.06627603       0.01136338       0.01200366
Ar       5.05590438      14.65060154       0.92246003      -0.03468451       0.00058219       0.01006494
Ar       9.76427394      12.93008271       9.11291484       0.02592295       0.11516400      -0.07572528
Ar       9.83686683      14.16367806       5.71845966      -0.11851882      -0.02677576       0.01893050
Ar      10.32300485      11.49213822      16.16390541       0.01103832       0.12041111       0.07835979
Ar       7.04130123      14.94981363       3.63168327       0.03575919       0.00906894       0.12804965
Ar      10.24912900       3.02739085       8.79937320      -0.09384375      -0.07744230       0.05320186
Ar      12.83464122       8.08744784       8.78387515       0.01227923       0.09177967       0.06158767
Ar      13.34933297      15.26838549       8.69687071       0.01424187       0.03810216       0.05567868
Ar       7.52461939       1.22539198       2.83384277      -0.03378948       0.01414955       0.04648275
Ar       7.58586031      15.61946169      12.10028663      -0.02383603      -0.07115100       0.02500317
Ar       8.60442202      11.38926164       2.27743774      -0.03931219      -0.03783928      -0.14275953
Ar      16.72482541       1.10271391      14.11730315       0.03874427       0.08192033      -0.01706360
Ar      16.06147588      10.83230958       2.02083482       0.00170885       0.01633096      -0.00392223
Ar       1.17764323       0.08089399       5.34755257       0.11789199       0.00488085      -0.02421552
Ar      16.76217989      13.82262262      16.55813227      -0.07067389       0.10229154      -0.11757960
Ar      17.27105980       2.65528700       8.50255084      -0.00716716      -0.10484565       0.03149903
Ar      10.72902624      14.03976769      13.67385170       0.00863025       0.02894829      -0.01313391
Ar       0.85463394      15.23667643      13.29089622      -0.06024602      -0.00040069      -0.03628387
Ar      11.60314843       8.69173172      13.09281891       0.05614746       0.02673273      -0.04549194
Ar       3.55786777      11.46663244      11.88914172       0.02887839       0.06572653      -0.06018021
Ar      15.10570312       8.80550896      11.77205333      -0.00197520      -0.04427614      -0.06699466
Ar       3.76802158      12.71188891       5.48951312       0.02322145      -0.00353597      -0.04482222
Ar       8.17067714       8.29787226      14.03397539       0.03825852       0.05218163      -0.02974636
Ar       8.80520599      14.41948449      17.02506079      -0.06137490       0.00959622       0.00081831
Ar      13.09372807       4.09454988      14.04875819      -0.02508946       0.02730099      -0.02272060
Ar      12.06262493      10.16084275       1.50738149       0.01925295       0.14229031      -0.00990204
Ar      17.22158781      16.48319383       9.91914063       0.01136684      -0.02099322       0.00169191
Ar      13.63401234       1.30846932       7.90570770      -0.00512081      -0.02157451       0.04778573
Ar       1.46831675       8.65780469      11.53821937      -0.06162153       0.03017564       0.07515241
Ar       9.55807629       0.35961141       5.54202473      -0.10115179      -0.03159975      -0.07111679
Ar      15.78972907      12.56972816      11.21300938      -0.05432734       0.06455471      -0.06793816
Ar       2.47205888       7.35629505      16.52945225       0.06364187      -0.06764998       0.02024795
Ar      13.06723945      13.99515599      16.63651759       0.05630567      -0.06619189      -0.08461755
Ar       1.67476583      15.18300874       1.96185655      -0.03136917      -0.02709579      -0.07022562
Ar      11.13221825      16.92017540      10.58605608       0.00701238       0.02012157       0.05104057
Ar       9.00029685       1.66599140      16.33245884      -0.05594162       0.09418109      -0.00083725
Ar      10.76881541       5.63359213      11.40418991       0.04660029       0.01134948      -0.02396466
Ar       7.76763386      11.77233383      12.11705114       0.05484395       0.05568201       0.00189255
Ar      12.53042397      11.69850514      11.58092666       0.03106379      -0.08590760       0.01604218
Ar      12.33768896      13.13270386       2.96389809       0.10345133       0.04472898      -0.02854635
Ar      14.24915776      10.48265043      15.83227998      -0.01526792       0.09412041       0.03613312
Ar      15.35416476       7.01160740       2.46758942      -0.06878420      -0.01505342      -0.04087996
