108
Lattice="17.35 0.0 0.0 0.0 17.35 0.0 0.0 0.0 17.35" Properties=species:S:1:pos:R:3:momenta:R:3 pbc="T T T"
Ar       1.64329230      11.88461344       4.83811613       0.08174106      -0.01946190       0.01422008
Ar       8.07604043      10.40574315       6.51388624      -0.02648853       0.04660460       0.12804093
Ar       5.77164052      12.97020257       1.55194816      -0.03191948       0.08226230       0.02056744
Ar       0.74036678       6.41451892       8.78952531      -0.02084928       0.01388262      -0.11764381
Ar       8.72963719       4.11230685      14.70727778      -0.07316062      -0.07774884      -0.00248534
Ar       4.14271748       7.69740760      10.24408833      -0.03560085      -0.04524745      -0.05721425
Ar      16.65327856       5.00709899      11.90435216      -0.00526295       0.01197154       0.04051391
Ar      13.10125250       4.99496232       9.36509971       0.03074807      -0.08643710      -0.04760343
Ar       9.48656139       3.67896649       5.05660087      -0.11652181       0.04103163      -0.01196563
Ar      13.13665571       3.35622157       5.92874092       0.01304063       0.04709223      -0.07045134
Ar       1.84462948      14.38747060       7.83013655       0.00242593      -0.05532938       0.07267626
Ar      13.81052620      17.17483774       1.16971012      -0.02586996      -0.06797521       0.08574008
Ar       8.66493381       8.26791734       0.03155129      -0.00654101      -0.04731760       0.00466041
Ar       7.12046713       2.31304527       7.78361234      -0.01946662      -0.00247516      -0.11399226
Ar       6.17843514       5.97775377       7.79484489       0.03725722      -0.02395820      -0.00415455
Ar       4.42230056       2.46957786       0.75505720      -0.03317384       0.00044207      -0.00908630
Ar       0.97414013       0.62856502       1.07701076       0.16146139      -0.09757103       0.02448493
Ar      12.00882742       2.51645737       2.38663092       0.08449328       0.08412186      -0.03832380
Ar       5.94370155       6.06463317      12.70489187       0.04672148       0.02009463       0.01184409
Ar       1.14595989       8.59517622       3.28138558      -0.12011231       0.03466090       0.01603260
Ar      12.57257699      15.58126751       5.12560657      -0.05083398      -0.13631729       0.00287683
Ar       6.18793477      16.24469479       6.88216100       0.02894710       0.03963170       0.01610151
Ar       4.42822629       3.00933985      14.44340381      -0.01204775      -0.08222012      -0.06916100
Ar       4.78963644       9.21980041       4.91242889       0.00747570       0.08159216      -0.06168770
Ar      10.18525607      17.21920886       2.16344558       0.10935173      -0.05958204       0.08337766
Ar       6.21068442      16.30908789      13.93007185       0.00676071      -0.08362950      -0.09280933
Ar       5.89954257       6.08013863      16.81424218       0.00854668      -0.00791410      -0.04636668
Ar      11.67178574       1.52970406      15.19214111       0.01819941       0.01489985      -0.03858869
Ar      12.18530116      10.45457490       8.14815401      -0.03583986      -0.02425096      -0.05068045
Ar       3.25997356      16.14484084      12.10255256       0.09817847       0.04574244       0.02867688
Ar       5.43843798       8.83144702       1.59679599       0.01643703       0.02087358       0.00313955
Ar      15.87570097      14.45899117       4.05896771       0.04419500      -0.03916109      -0.02108884
Ar       7.79919241       7.29544477       4.51264685      -0.00889515       0.01785699      -0.07465346
Ar      11.97464203       5.75944981       3.30302866      -0.12156799       0.04533679      -0.05294323
Ar      15.49588772       3.80723522      16.15792731      -0.08920612      -0.01376563      -0.03332116
Ar      16.51984094       8.27032121      15.48959586      -0.05957275       0.05218493       0.00187388
Ar       1.22855301       2.75290819       5.42357337       0.02460756      -0.04253999       0.06194800
Ar      10.06111387       1.07258165      12.01080228       0.00454294       0.00250892       0.01506320
Ar       6.07498437       1.83988645      11.34675993      -0.00289819       0.04213061      -0.04605123
Ar       1.80976453       2.51986303      12.38528145       0.00482959      -0.01618106       0.01385582
Ar       0.09861829       5.79288453       5.72576083       0.05214053       0.07488912       0.02181968
Ar      11.27011762       9.03646114       4.61825441      -0.10099997       0.02327190      -0.02594457
Ar       2.49028204       0.41675251       8.31828981       0.01856878       0.07722980      -0.00626048
Ar       7.19182116      10.73456437      15.39137477       0.03698234       0.06966409       0.01745821
Ar      12.36970225       6.45326964      17.24104529      -0.10713164       0.05916347      -0.01741390
Ar       1.67304090       4.34980800      16.58451114      -0.08528131      -0.05786596      -0.05500098
Ar       4.29499229       8.97183329      14.31349343      -0.07795570       0.02244566      -0.02885028
Ar       1.85737107       4.94670230       2.63467841       0.00033004      -0.01374220      -0.02607406
Ar       4.22595817      13.04221450      15.62558778      -0.09473856       0.00889861       0.00305979
Ar       3.56543467       4.07987341       8.77653049       0.02686879       0.00916084       0.00425540
Ar      13.64992717       1.70773914      11.73212975       0.08939807      -0.01943930       0.03217212
Ar       2.31914915       6.01355790      13.05521418      -0.00133773       0.02789387       0.09156505
Ar       8.28369230       4.89422233       1.99807764      -0.02142190      -0.00737763       0.02179100
Ar       7.32916481       9.42158558      11.34810303       0.00718381       0.07700362      -0.06860172
Ar       2.62528840      11.00129484       0.86214878       0.01647444       0.01299031       0.04141592
Ar       1.81730426      10.54114190       8.09214869      -0.04601690       0.01645510      -0.07799931
Ar       0.80207676      11.24958903      15.16967406       0.04138446       0.05437176       0.12710828
Ar       2.96414298       0.03422992      15.54587298      -0.05522763      -0.06459134      -0.04885720
Ar      14.71503090      10.62983714       5.20195746       0.01357889      -0.00456255      -0.01342361
Ar       9.90395790       7.69207658       8.08262359       0.03556637       0.14276181       0.01784993
Ar      14.36111499      15.29079692      13.25842824      -0.05078181       0.03765174       0.12729422
Ar       3.12092664       0.25045459       3.79979993      -0.03431192       0.01872887       0.11638848
Ar       5.32495878       3.59749951       4.90066439       0.00181052      -0.02642908       0.13023360
Ar      15.58807050       3.15523547       3.24842866      -0.10795196      -0.02602697      -0.01886316
Ar      15.74788882      10.29382756       9.04717636       0.03235671       0.04481170       0.03155414
Ar       5.05392016      11.55530658       9.10614987       0.02239282       0.06499462      -0.01556458
Ar       5.20281560      16.35533033       0.73399628       0.04935619      -0.13548406      -0.01652104
Ar       8.68972949      12.41947486       9.52162022       0.06233510       0.04032885      -0.00859468
Ar      10.96300302      12.89657717       5.98367766       0.02913132       0.00130493       0.01429690
Ar      10.86696094      11.05367396      15.15468957      -0.04609970       0.02782571       0.02298183
Ar       8.26892259      14.30021266       3.85405071       0.03082513       0.10919639       0.05320287
Ar      10.52035670       2.46058566       8.31113772       0.02023008      -0.07247318       0.01039044
Ar      14.36998461       7.16735059       6.70013902      -0.00117812      -0.04902721       0.06660435
Ar      14.29327568      13.66321270       7.78178666      -0.01460166      -0.07862490       0.02568800
Ar       7.14136838       0.50135678       3.62759292      -0.02177684       0.02068963       0.04225831
Ar       7.64142167      16.37844394      10.06692055      -0.00661180      -0.06638756      -0.01907894
Ar       9.00622443      11.05530376       2.35100739      -0.02380614      -0.00519886      -0.03408193
Ar      16.37409941       0.73838508      14.48602274       0.01104403      -0.04125175       0.03338541
Ar      16.05102978      11.33290683       1.62303950       0.02807121      -0.03966727       0.00179895
Ar      16.45322091      16.89411976       6.41846415      -0.03280536       0.05384061       0.00308650
Ar      16.40978999      14.51459159      17.23163066      -0.01651287      -0.06131377       0.03712547
Ar      16.66444779       3.06044403       8.50457882      -0.07617340       0.00585179      -0.01150385
Ar      10.20293212      15.67473842      14.17170125       0.00504013      -0.02031790      -0.02708560
Ar       0.99809372      14.49867471      14.40981127       0.02399258       0.03189323      -0.01337583
Ar      11.22040921       9.14716896      11.35901156       0.04317400      -0.04642112      -0.01024519
Ar       3.53042088      12.06205337      12.42206472       0.00981364      -0.03376241       0.12564237
Ar      14.16271066       7.57171407      11.20217389       0.08912944      -0.00674769       0.01224133
Ar       4.60251591      13.61587859       5.20954949       0.10135067       0.02608669      -0.05777717
Ar       9.84496861       7.51820339      14.00592632      -0.00322010       0.06605759       0.01611629
Ar       8.74013898      14.47507097      17.19135827       0.00243288      -0.04787235      -0.01988436
Ar      12.95849186       5.07650644      13.39887541       0.02695336      -0.00240400      -0.00381160
Ar      12.13500689       9.78111870       0.97293200      -0.06141461       0.02659793       0.12220663
Ar      17.19967256      16.58887531      10.17172146       0.05522785       0.06054042      -0.01881695
Ar      13.63269059       0.32780526       8.24302813       0.02605536       0.04181658      -0.02744033
Ar       0.70290200       9.05469595      11.57167935      -0.01086453       0.04643755      -0.03193264
Ar       9.64845519      16.62673203       6.87614697       0.01371818       0.08831681      -0.01107051
Ar      16.63291895      12.92309715      11.61561934      -0.01144860      -0.04426022      -0.09027571
Ar       2.53278835       7.59045495       0.27461564       0.02806405      -0.05195729      -0.08542147
Ar      12.83820484      14.13237538      16.60731149       0.03120924       0.02396281      -0.13594762
Ar       2.04446280      14.36761429       1.84173558      -0.07129216      -0.08640006       0.01289061
Ar      11.12623736      15.47683338      10.52725799      -0.01950976       0.02885173       0.06752607
Ar       8.30822263       1.61872855      17.24068141       0.09851443       0.02351207       0.03646582
Ar       9.83418505       5.15690606      10.90491923       0.09175688      -0.11172602       0.05693852
Ar       7.85986581      13.08262733      12.73706859      -0.14395087       0.04546715      -0.07919235
Ar      12.07791980      12.65616174      11.93626665       0.04043790       0.02484765      -0.03527555
Ar      12.95955397      12.72999506       2.40141598       0.04447237      -0.02324843      -0.04017499
Ar      14.53212728      11.45951685      15.38795365       0.03401345      -0.08567123       0.03312142
Ar      15.57088717       6.26000742       1.30872517       0.01890559      -0.02139949       0.01700666
