108
Lattice="17.35 0.0 0.0 0.0 17.35 0.0 0.0 0.0 17.35" Properties=species:S:1:pos:R:3:momenta:R:3 pbc="T T T"
Ar       1.32114362      15.23152656       8.01977855      -0.04601148      -0.06158636      -0.09691298
Ar       8.05394506       8.91091718       4.20529325      -0.05203707       0.09531229      -0.06273422
Ar       6.73019193      11.79459944       2.46438637      -0.04413585       0.00904298      -0.05575757
Ar      16.35444734       9.53479460       9.45275200      -0.02011564      -0.04455335       0.00029968
Ar       7.36713025       4.24742115      13.25707009       0.02692941      -0.09372908       0.04782215
Ar       2.99332973       4.47322608       9.87586930      -0.00368277      -0.03814437       0.06223696
Ar      16.44200991       4.57009394      16.68596492       0.04026602      -0.03494746      -0.03882120
Ar      16.29185030       5.51288676      10.17743730       0.02974951      -0.06737125       0.03766029
Ar       9.89072652       3.70089246       5.63815856       0.12072118       0.06305411       0.00247727
Ar      14.26768415       2.03425109      11.37993725       0.04272243      -0.04453880       0.00109591
Ar      13.94215689      13.04345272       9.55266497      -0.00096572      -0.03659754      -0.00858426
Ar      13.32787379       2.84899685       0.20672479      -0.03411512       0.08607318      -0.00560405
Ar      11.47842906       6.98772958       3.95608692       0.01289068       0.15631195      -0.00156953
Ar       6.24150437       3.78945790       6.96928089       0.02709740       0.00521399      -0.01823576
Ar       6.31344647       5.35679277       2.93288933       0.02780084      -0.03911958       0.01377467
Ar       2.99234649       1.76542087       1.61998692      -0.04243074      -0.10429105      -0.00872335
Ar       1.06650877      14.99362943       4.24522651       0.02197963       0.06849636       0.03752227
Ar       9.38307186       4.10904132       1.75374359       0.03974215      -0.00314461       0.04840889
Ar       8.41237440       4.90797754      10.28457560       0.00101658      -0.10118652      -0.00694601
Ar       3.97843058       6.04749370       5.45262420       0.08955404      -0.05164325       0.07744553
Ar      14.88567401       5.97523175       5.89342298       0.00868142      -0.08004692      -0.09754987
Ar       2.91785866       1.86932186       5.93434294       0.05105603       0.09937704      -0.00563640
Ar       3.02247255       1.22574597      15.63255159      -0.02945874       0.08249895       0.01176634
Ar       4.94731950       9.83385316       5.87703716      -0.03139793      -0.06750492      -0.01127407
Ar       9.68010273      14.08831447       2.44980685       0.00477041      -0.00425245       0.01635903
Ar       6.39686328       0.71096923       0.59432192       0.06256706       0.01488613      -0.03703672
Ar       9.89457070       3.05356662      15.73318537       0.00965776      -0.08601276       0.00990241
Ar      10.83880585       2.82671984      11.92446363      -0.00921251      -0.02946451       0.00294982
Ar      11.57297906      16.48156321      10.31750221      -0.01740394      -0.03374256       0.05509249
Ar       2.09888198      15.82614874      11.36947905       0.09784546       0.05784439       0.01431248
Ar       9.60074966       7.52584479       0.89187629       0.05930296      -0.00604918       0.04855997
Ar      13.26473822       3.59181798       3.68055041      -0.01060473      -0.15663485       0.01237787
Ar      10.08146646       6.72134975       7.64520356       0.03358808      -0.03152162       0.07758725
Ar      12.79522958       6.12940498       0.65203899      -0.08198474      -0.05504883       0.01028424
Ar      16.69929409       1.00131279       0.89130331       0.00235393      -0.01556933      -0.02139770
Ar       2.17215205       8.67349056      15.07958065       0.04520146      -0.08120897      -0.00596764
Ar       0.56540824       4.64732784       3.49041825       0.01917074      -0.05925777      -0.01270016
Ar       3.68711246       5.03461504      13.93867549      -0.03709928       0.03030090       0.08921637
Ar       5.06977074       0.50249762       8.76872872      -0.02532860      -0.02196350       0.02543355
Ar       4.21215899       1.98704554      12.12629551       0.00587620      -0.02822426       0.04054926
Ar       0.96571978       5.08502481       7.19296378       0.01714227      -0.00200175      -0.04302537
Ar      12.92272105       9.71904885       8.78171200       0.10209618      -0.00010094       0.03665851
Ar       0.31424294       2.04666956       8.53906404       0.01043246      -0.09289663      -0.05718620
Ar       4.94145357      10.86548338      15.96294197      -0.01012163      -0.02301283       0.08492420
Ar      10.16730848       6.38427866      14.49601058       0.04331663       0.04294187      -0.02645408
Ar       3.54152972       5.07873028       0.37864836       0.04935188       0.01504646      -0.08293063
Ar       4.98799816       8.14175297      12.53080513      -0.01893176       0.11276512       0.01874623
Ar       6.70768394       4.13383942      16.75744471      -0.09816268      -0.04647072       0.02415936
Ar       1.83850309      13.00206189      14.62012272       0.05146930      -0.02410720      -0.05114330
Ar       0.80235651       2.27308232      12.76789576       0.12839524       0.08755376      -0.04435106
Ar      11.90522657       0.14619953      13.88131803      -0.01433458       0.00929512       0.07912266
Ar       1.56728405       7.24950291      11.72989171       0.02257657       0.05664882       0.03545518
Ar       9.19181081       0.58099793       2.83686660      -0.14306103      -0.06267390      -0.05831243
Ar       8.40998579       8.26277467      11.35429130      -0.00144847      -0.02820754       0.02909915
Ar       0.76455074       8.23610147       5.32947727       0.02830673       0.09226802      -0.06077414
Ar       3.12946843       8.63848736       8.57769781      -0.04923444      -0.04878572      -0.10834583
Ar       1.69023343      10.28866717       0.65870412       0.12068025       0.02419386       0.01361558
Ar       0.14107364      16.19417259      15.45732125       0.02831153       0.05488519      -0.07965189
Ar      14.84670162       9.44060519       5.67255295      -0.09932291       0.03829163      -0.03665453
Ar       7.95378125      10.32949897       8.51601981       0.01758446       0.02473839       0.03110320
Ar      13.31737206      16.29538661      17.06480279       0.00240652      -0.12318600      -0.02091260
Ar       6.60317632      15.25889611       2.51913288       0.04370480       0.00134975       0.10257429
Ar       5.78699679       2.03195863       3.88071990      -0.03426258       0.07214817       0.05718422
Ar      15.55567019       7.29274784       2.91812828      -0.00823595      -0.09021031      -0.00704788
Ar      16.57220134      11.90645319       3.07301786       0.06583258       0.05861228       0.04956593
Ar       6.89676008      13.48528474       5.69574907       0.06868430       0.10907515       0.13900172
Ar       2.55945254      14.84984096       0.64130676      -0.05537238      -0.00779391      -0.02466929
Ar      10.41729066      12.15360343      10.96863833       0.07387950      -0.01077533       0.00252512
Ar      13.23987061      13.49328355       2.45398498      -0.05983741       0.08547326       0.01653230
Ar       9.53625242      10.90198801      14.63834490      -0.00148503       0.10323916       0.00917049
Ar       7.91608838      17.18651594       6.15121731      -0.11545236       0.03057330       0.02936916
Ar       8.90911191       1.57575955       9.33058210      -0.02009074       0.07726544      -0.08747374
Ar      10.09535561      11.69369561       6.09341208      -0.04393469       0.00973378       0.01410385
Ar      15.47741595      13.24713961       6.17856999      -0.11596667       0.00443580      -0.00820385
Ar      13.16148427      17.35973958       2.94718007       0.00054454       0.08559276      -0.00481085
Ar       7.18990300      14.53734458       9.54984098      -0.00305526       0.03037931       0.02434477
Ar      11.44360749      13.09002864      16.86711089       0.04835538       0.02271228      -0.01482316
Ar      14.92466960       1.46586664      14.95396853       0.04009103      -0.05675826      -0.02400375
Ar      12.71306543       9.73711589       1.33517306      -0.02097060      -0.01833576      -0.05394545
Ar       4.68817061      16.25550034       5.39094046      -0.00205403      -0.00882010       0.03004036
Ar      16.36724600      14.85636408       1.11885866      -0.06172654       0.03104624       0.06993906
Ar      17.07168985       0.90522552       5.12714804      -0.03904573       0.05309453      -0.05869730
Ar       7.75689633       0.71060092      13.76409726       0.04081743      -0.09458804       0.00563009
Ar      16.12131763      15.60202451      12.13600349       0.01927888       0.03908134      -0.05271754
Ar      12.03302097       7.15340667      11.38729864      -0.02731695      -0.03981261      -0.03040074
Ar       6.20797932       7.16103453       8.57437339       0.05548631       0.01446673       0.08431374
Ar      16.05963772       8.59448306      13.24193224       0.00220596       0.05378939       0.00684278
Ar       4.52563540      12.69086714       8.15633284      -0.02575762      -0.02726810       0.00276044
Ar       6.36609839       7.81789720      15.85300280      -0.08090197      -0.02696728       0.04264705
Ar       4.80244713      15.35524091      14.45740664      -0.04350399      -0.00218791      -0.01877212
Ar      13.60977092       5.10135506      14.46381607       0.01013143       0.06598183       0.03309255
Ar      12.81336871       8.95497547      15.17445645       0.00443656       0.00626924       0.04779568
Ar      13.11900350      14.20681074      13.29156608       0.01435626       0.05113148      -0.00666732
Ar      14.87955841      16.79071332       8.65868445       0.05824075      -0.01165347      -0.05690403
Ar       2.38750657      10.88972918      11.57544704       0.01801702      -0.02737186      -0.02662129
Ar      12.03359565      14.87345928       6.06706353      -0.11848132       0.02977677      -0.10123590
Ar      13.46255273      10.84897105      12.34433882      -0.00400621      -0.03526103      -0.02185362
Ar       4.60075531       9.00355653       2.05931613      -0.03160238       0.03966348      -0.05127619
Ar       9.51516542      16.39859414      16.60689398       0.00337859      -0.07262843      -0.14048767
Ar       2.98418590      11.77577586       3.43932826      -0.04713937      -0.00463145       0.02966103
Ar      12.86318801       1.77139025       6.32934251      -0.06886275       0.15049959      -0.01404501
Ar       7.14015910      13.50768585      16.44142252       0.02814457      -0.00334670      -0.03133236
Ar      12.65751417       3.90255738       8.85459591      -0.03102775       0.00175227       0.11305605
Ar       6.34169533      11.91228406      11.67555126       0.02655435      -0.03768299      -0.06462273
Ar       9.14038609      14.68071952      13.95475821      -0.02444823      -0.01185507       0.04116633
Ar      15.46491494      11.93874156      15.96535023      -0.09996125      -0.02042848       0.07584765
Ar      16.57467847      11.94543519      12.58524337      -0.01836552      -0.02043621      -0.00099103
Ar      16.12606000       8.55477317      16.71364732      -0.00128397       0.00342836      -0.05638708
