108
Lattice="17.35 0.0 0.0 0.0 17.35 0.0 0.0 0.0 17.35" Properties=species:S:1:pos:R:3:momenta:R:3 pbc="T T T"
Ar      17.28018748      11.41111172       2.98490220       0.00278798       0.09362539      -0.08478041
Ar       2.98869948      17.22376500      10.29300674       0.06312026       0.06613329       0.05037881
Ar       2.43536976      10.53941337       9.22387475       0.03291557      -0.00158373       0.01731111
Ar      13.33238967       2.33674456       6.04933986      -0.03516061       0.05059327       0.05320563
Ar       3.63536844      16.77273100      14.10574644      -0.00299623      -0.00324631      -0.04066133
Ar      11.95084805      11.61521035      14.86322213      -0.07396422      -0.06251575       0.02911245
Ar       0.32644566       1.22067400       0.51489699       0.04950112      -0.06835930       0.12516894
Ar      15.21490254       3.14877983       8.72258730       0.09725438      -0.01719251      -0.01097193
Ar      10.83642956       3.87701840      11.02075693       0.02525394      -0.00724820      -0.00982638
Ar      15.35939321       6.45498879       5.93858531       0.05509876       0.01604865       0.00688240
Ar       2.99308273       9.65687615       5.22835772       0.00251970       0.00808478       0.04988179
Ar      15.81516060      14.30609539       6.16645828      -0.03612132       0.02007941      -0.03771510
Ar       6.31784415       8.50407768       8.87507739      -0.06039630       0.00970146      -0.08839614
Ar       1.81357273       8.34498457       2.00661355       0.06445632      -0.05524585       0.02805199
Ar       4.55569492       2.59631319      11.89638182       0.00369665      -0.07319985      -0.03134228
Ar       5.27825374       8.07559940       1.69563184       0.07144875       0.03673413      -0.04388959
Ar      14.06558211       2.17853711       1.09003144       0.04355506       0.02820155      -0.06398058
Ar      14.06317819       0.21247541      15.31739215       0.08383880      -0.03634171      -0.01496287
Ar       5.25107619       6.58320174       5.28600226      -0.05209233      -0.06153721       0.03816205
Ar      13.43368569      13.01413260       3.39340430      -0.01253294       0.07608245       0.09983862
Ar       9.90910474       2.91022676       3.93566947       0.02257107       0.05373359       0.04287625
Ar       9.52542107      10.42047000       8.26689858       0.01972535      -0.00473506       0.01622682
Ar       6.98005443       4.96484664      11.14803654      -0.05871556      -0.06464580      -0.03508528
Ar       9.43422599       7.43949003       9.88674337      -0.00259343       0.00447807      -0.05287782
Ar       8.49235267       4.95754133      14.35102986      -0.05180792      -0.07566463      -0.10471746
Ar       2.59918213       2.42883020      15.39897291       0.07769862       0.02017490      -0.05508151
Ar       8.54466412      14.86623062       0.61442898       0.02063602       0.09037215      -0.02811447
Ar      10.60267434       8.25657198       2.41470692      -0.12163882       0.08993033       0.09771702
Ar      13.57153967      14.72831248       8.89966803      -0.04171167       0.00899115       0.00745021
Ar       9.45899047      14.32657683      13.24614662       0.06878379       0.02274416      -0.03006265
Ar       2.97219549       0.80205509       5.66834817       0.04442845       0.00028870      -0.02326288
Ar      11.68503512      17.19083793       1.85553849       0.00050081       0.05988223       0.01901513
Ar       6.29363237      11.06982602       6.12270921      -0.05648586       0.01211480       0.03722567
Ar      14.01317899       5.95579532      10.91145671       0.08617961       0.11656042       0.06536134
Ar       0.99418068       8.87085593      12.14107453      -0.11405584      -0.06883661       0.04822236
Ar       9.76243005       8.09025230      16.47009059      -0.10579979       0.00038202      -0.00188626
Ar       3.70327169       5.89933185      12.60894829      -0.11901749      -0.07784953       0.00464170
Ar      10.67284245       2.05778578      15.42465051      -0.00333247       0.07665672       0.02850714
Ar      11.57104250       0.46588724       8.84606916      -0.06847734       0.07216002      -0.05665618
Ar      17.07646964      15.30334104      11.14074593      -0.08295819       0.08745782       0.01383696
Ar       3.17523913      16.41583011       1.71660355       0.08577218       0.03066732       0.04194354
Ar       2.26594282      12.45629938      12.83551818       0.01855894      -0.00980060      -0.06162607
Ar       6.04725584      14.28235129      13.17071481       0.04184460       0.02357128       0.04887436
Ar      17.17040332       3.23169559       5.52266644      -0.06732372      -0.01911905      -0.05364872
Ar      15.38999792      11.98432983      10.24479629       0.04963006      -0.06897052       0.09057297
Ar      16.41940617      15.45214318       1.47345274       0.01916798       0.02795532       0.02517812
Ar       8.42883695      10.70124423      12.57382043       0.04781455      -0.04565439      -0.02788942
Ar       6.44899140       7.90780810      14.89881413       0.08129450      -0.00253211       0.01369410
Ar      16.30385861      12.16252622      14.22222662       0.09120750      -0.03149082       0.04803228
Ar       6.42832344      16.46906212       8.51974390       0.02069078      -0.02750185      -0.02735123
Ar       4.98547517      10.18649311      12.18555129       0.04366127       0.02259831      -0.05558827
Ar      15.42448934       7.29594247      14.14610614      -0.10522280       0.01082311      -0.04936393
Ar       4.09843913      10.56371702      15.71941444      -0.06395019       0.03240911      -0.05058664
Ar      14.09516031       9.74482463      12.35161206      -0.04073720      -0.02458055      -0.05717904
Ar       5.12907252       2.08064883       3.05110298       0.02275192      -0.00850515      -0.13313848
Ar       5.56611488       3.23616626       7.19853011       0.05112294      -0.05027502       0.01262698
Ar      17.12735634       9.68766022      16.53108671      -0.00271559       0.02966837      -0.00522056
Ar      14.53757768       2.50830755      12.62152582       0.04464289       0.01904750       0.02350701
Ar       0.28381027       1.31689572      11.58560356      -0.01725442      -0.03947049       0.07135585
Ar      12.55067171      11.65541040       6.71140716      -0.05038994       0.04492247      -0.01357868
Ar      11.52368010      12.50303884      10.98629580       0.02460768       0.03081521       0.08227108
Ar      13.12389464       9.14160761       8.93506140       0.01801454       0.02563219      -0.03638285
Ar      16.39325178       0.09420889       7.93118992      -0.06437903       0.02092183      -0.00543226
Ar      13.58544128       5.09253097       3.40882504      -0.00644317      -0.04157620      -0.02308530
Ar       1.77281269       4.35815378       8.81739924      -0.03325955      -0.03467852      -0.03273991
Ar       9.74967853      14.74429821       7.94051520      -0.06462257      -0.02350537      -0.02677207
Ar       1.82151377       4.18612526       2.31047519      -0.07172494      -0.05842238       0.01076921
Ar       8.62797300      17.09869240       5.68120676      -0.03408364      -0.01352003      -0.05936623
Ar       5.29925530      14.37813126      16.62232237       0.01877281       0.00621124      -0.03001678
Ar      13.50395724       8.72668681      16.71552863      -0.14454722      -0.07942887      -0.01990944
Ar       4.51664546       5.08555400      16.13863874      -0.01454296       0.00915122       0.00253813
Ar      12.18412740       5.35422840       7.91211092      -0.03767968       0.04870624       0.00671891
Ar      13.89523153      14.57154144      13.19434190       0.00266840       0.05732591      -0.06034625
Ar      12.26116939      15.99127201       5.61618342       0.07056113      -0.06632190      -0.01514831
Ar      11.45504418       4.65792963       0.67509902      -0.01196856      -0.03616034       0.05030280
Ar       0.37931689       7.63057871       9.07244705       0.02880928      -0.05438265       0.08088603
Ar       7.41432530      11.48712942       2.57763382      -0.08228195       0.01320179       0.15378422
Ar      11.50334457      15.05289056      15.99761990      -0.06428288      -0.01047445       0.00993775
Ar       1.56523074      13.20192183       0.26213043       0.04661340      -0.04929169       0.04466784
Ar       5.86152608      14.53473720       4.42594884       0.00909948      -0.00879964       0.07840832
Ar      14.42490953      12.96598648      17.33595795       0.10589327      -0.04416479       0.00417518
Ar      11.22857214       7.61557415      12.84315568       0.13253264      -0.01619686      -0.03325894
Ar       8.82618322       2.40454460       8.28643183      -0.02448160      -0.15608518       0.03344226
Ar      15.91431316       6.40471987       1.02897315      -0.01299290       0.02466821      -0.04241430
Ar       7.97057882       8.36884723       4.64866571      -0.02765341      -0.00338139      -0.00074905
Ar       7.73497910      11.42990023      16.07946873       0.04346362       0.04597068      -0.06307485
Ar       0.40090920       5.15216789      11.83290347      -0.05149989      -0.01770644       0.01841147
Ar       1.33737752      14.82616712       3.94406331      -0.01306527       0.03727227       0.12321129
Ar       7.65786848       5.53376337       0.75141421       0.01146734      -0.03827872       0.00936981
Ar       5.94753005       1.19087972      17.06867195       0.00199782      -0.02906585       0.06478713
Ar       8.68573233       5.43142263       6.60451740      -0.00780500      -0.14430839       0.06855461
Ar      10.01793939      13.10445239       4.58486584       0.03745704      -0.04882692      -0.01084092
Ar       2.23427136       7.69678886      15.13595037      -0.01873132       0.04791669      -0.04700894
Ar       3.55734900      14.05697754       7.10866394       0.04888854       0.10450313      -0.02731442
Ar      15.96642030       3.79440887      15.53610968       0.05815009       0.03637749      -0.06850458
Ar       1.69946841       6.35491096       5.72509782      -0.03386584       0.02032310       0.10014377
Ar       6.29752369      12.68099099       9.04267625      -0.06186166       0.01456651       0.09634234
Ar      10.77225858      11.87067626       0.98671935       0.05586703      -0.05144432       0.00944994
Ar       4.08670679      11.62531318       2.26714811      -0.10271196       0.01610502      -0.04671989
Ar      15.27288387      17.19341901       4.43445221      -0.01750464       0.04722308      -0.05540558
Ar      17.28642104      15.75002753      14.97998130      -0.00020173       0.07318004      -0.13331248
Ar       8.18138108      17.09390876      14.99857455      -0.14514424      -0.06068354      -0.06204693
Ar      12.78864225       5.12549365      14.76501696       0.11355990       0.00268618      -0.06345159
Ar       8.12178778       1.60889452      12.07348404       0.11412344       0.00994887       0.01148380
Ar      11.39927592      17.34360855      12.66364670      -0.00116709       0.08444466       0.02100912
Ar      16.90811518      10.93032293       6.77853158       0.07713975      -0.06501141      -0.01301517
Ar      13.59098007       9.41944820       3.13840899      -0.02521460       0.00197442       0.07519716
Ar      11.33791251       8.15452056       5.91305920       0.04735117       0.01581823      -0.08496251
