108
Lattice="17.35 0.0 0.0 0.0 17.35 0.0 0.0 0.0 17.35" Properties=species:S:1:pos:R:3:momenta:R:3 pbc="T T T"
Ar       0.57844386       9.65441644       5.90999906       0.07094024       0.07246633       0.01221006
Ar       5.01812154       2.92007442       9.90828384       0.01844776      -0.04502205       0.08063260
Ar       6.27958756      16.59053294       6.18390902       0.06193299      -0.04862061       0.01015766
Ar       1.14342399       2.12763153       9.33930900      -0.08472446       0.00899141       0.05050981
Ar       8.83886638       3.25664626      14.22649846      -0.00299299      -0.00497076      -0.09008114
Ar       7.77774693      10.75958015      10.02009389       0.07247311       0.12138244      -0.01932108
Ar      13.74952481       3.33383814       1.67758677      -0.03156614      -0.13019239       0.02305399
Ar      13.66924234       1.45672067       7.94686327      -0.02598466      -0.02290722      -0.04422308
Ar       9.35433191       7.57456898       8.60305808      -0.10171418       0.01660261      -0.00841600
Ar      13.20968702       7.48567794       2.59410387      -0.05704167      -0.02168272      -0.03496907
Ar       1.47520384      11.79590016      10.24250634      -0.01944302      -0.02499452       0.07613141
Ar       0.08726885      14.97736889      11.45268809       0.00022739       0.10427936      -0.01770756
Ar       3.77106938      10.04496104       4.42127051       0.02447080       0.05490800       0.00422086
Ar       2.38231035       6.15006793       5.12332165       0.00803189      -0.00401160       0.02657998
Ar       5.84769761       6.31191250      12.14302107      -0.01981064      -0.03712467       0.04906476
Ar       6.56633649       4.07720084       0.94951704      -0.00717922       0.07341376      -0.02010872
Ar      16.85097906      16.88634760       3.68700197      -0.06111380      -0.03313558      -0.00806440
Ar       9.56769458       8.25754696       2.96145364      -0.08541645      -0.08225790       0.07405367
Ar       8.31670525       4.25062806      10.64386367       0.02789539       0.09200978       0.00540758
Ar      15.47158574      10.77027867       2.60775295      -0.05620722      -0.05104311       0.08318721
Ar      10.94048670      17.04879309       6.38731108      -0.02968531      -0.12557321       0.01614078
Ar       5.69899084      13.50691418       7.97790791       0.00414809       0.03027772      -0.02500354
Ar       0.83840008      15.51734043      15.08080882       0.03074638       0.00089677       0.06935806
Ar       5.73512291       7.12192371       2.40458177      -0.05562223      -0.03389516       0.02792616
Ar      10.54772481       4.39499186       0.54552284       0.06195231      -0.13268564      -0.01123653
Ar       4.57695645       2.83660030      14.74732727      -0.00688320      -0.01030461       0.05211307
Ar       8.27025473      17.08215762      17.21828092      -0.03965121      -0.03689181      -0.02848746
Ar      10.59865947      14.08004883       0.28087776      -0.07157410      -0.01241770       0.02717009
Ar      15.12305265      10.73892104       9.60923799       0.00916364      -0.07902149       0.07261798
Ar       8.66711706      14.75245306      10.86559677       0.04775895       0.05826469      -0.04714645
Ar       4.32679070       7.80422176      16.06833763       0.05355174       0.02437762       0.03245888
Ar      14.71118334      16.13248174      13.83953293      -0.00421239       0.02589013      -0.10090759
Ar       7.28542773       9.90340424       5.07472030       0.02796606       0.01304895      -0.00015781
Ar      12.47055667       6.36453640       6.88507190       0.02160231      -0.02495530      -0.03793702
Ar      11.77055997       5.32012945      14.34247989      -0.09430195       0.03231613      -0.03018101
Ar       7.96700670       7.14511291      16.86419002       0.04750491      -0.01085243       0.02077650
Ar      16.82769724       6.94623380       3.10225514      -0.05675934      -0.06651965       0.01676516
Ar      11.95814947       1.37555033      13.21241730       0.00279437      -0.02826794      -0.08849737
Ar       9.86578183       0.98181637      10.11200856       0.11296708       0.00967043       0.07007562
Ar       2.64987569      17.29524879      12.22221217       0.03157287      -0.07252337      -0.06956847
Ar      14.72794707       4.40323148       5.10397796      -0.01996909       0.10988829       0.12279333
Ar       8.59989052      15.54732849       3.58668707      -0.02399562      -0.01195784      -0.06733736
Ar       4.80192790      14.29601639      11.26227573       0.06020418       0.01104286       0.05063017
Ar       5.85584301      11.20624328       0.16662468      -0.07496728       0.08802857       0.02356611
Ar      14.20149743       9.06904964       5.73515456      -0.02849548      -0.06078447      -0.02544923
Ar      15.65240932      17.05775242       0.14567085      -0.06508359       0.10987865      -0.00431853
Ar       3.74158607      10.12594736      12.57584656       0.00506394      -0.00014378       0.01086081
Ar       2.72817239       5.37395034       1.45715387       0.08661536      -0.03538468      -0.03074374
Ar       5.00929192      16.56981262      15.01404542      -0.06444145       0.00635264      -0.04942200
Ar       5.98165971      17.15034930      10.09534041       0.10135701      -0.07059443      -0.03523830
Ar      15.86169094       4.90918183      10.55356134      -0.03330914      -0.02712092      -0.08234033
Ar       1.73619487       4.44613965      12.31833462       0.05158494       0.06461619      -0.01417812
Ar       7.64905372       5.78250174       5.15180104      -0.02803907       0.05994041      -0.05704116
Ar      12.61518394       7.75564834      10.30510132      -0.03142139       0.09331197      -0.00253058
Ar       1.47676144      12.54447088       3.17894761       0.07444683      -0.00890894       0.04508375
Ar       4.86926078       8.34465216       7.44626270       0.02629412      -0.01379087      -0.05063313
Ar       1.72332126       9.52438208       1.47102153       0.00361702       0.07542785      -0.07008851
Ar       0.69171206       2.88024875      15.66115266       0.03966368       0.00374040       0.02745074
Ar      15.90387156       5.38679694      17.33482410       0.14296209      -0.07605908       0.06877326
Ar      10.73514084       9.79838729       6.22117058       0.05399557       0.08153003      -0.00913335
Ar      14.49977708      13.39495768      11.79952871      -0.00269363      -0.02125825      -0.04817258
Ar       2.62492897      16.26227504       5.16631986      -0.01194043       0.00604332      -0.00867945
Ar      17.13119289       3.15809462       2.19845439      -0.05283013       0.00854955       0.00685867
Ar      13.48268596       1.06343053       4.17391951       0.15715891       0.09260883       0.02618828
Ar       2.74159749       6.60443842       9.57452304       0.07973537       0.03914727       0.00714386
Ar       8.82635292      13.31349460       6.33184036      -0.12512625      -0.06524204       0.09553338
Ar       5.47243467      17.32229490       2.92666272       0.03002366       0.04571760      -0.06329793
Ar       8.22444556       1.87903977       3.95832785      -0.02843291       0.01704228      -0.02873249
Ar       5.51471768      14.65085565       0.54855089       0.06796508       0.00444118       0.04391082
Ar      16.19167034      11.87388962      14.66185730       0.00554775       0.00636115      -0.01073024
Ar       4.47310321       2.87335992       5.69692806       0.02771539       0.10485531      -0.06520897
Ar       9.84974086       3.71651545       7.34300744       0.03900856       0.04649948       0.09133357
Ar      13.12054858       9.66587425      13.42875201       0.02414081      -0.04147841      -0.07595927
Ar      12.96961532      12.86667997       6.65332985       0.09591145       0.06551881      -0.04171462
Ar      10.94085899       0.92299157       2.03154054      -0.01863889      -0.04827341      -0.02045639
Ar      12.01751520      15.29024419       9.13254796       0.00982141       0.02779461      -0.00952371
Ar       5.89463532      13.28362445       4.10376624      -0.01664174       0.06223752      -0.00568251
Ar       2.53219732      11.28742460      15.79095360      -0.03861177       0.02130765      -0.09725933
Ar       1.99916018      15.61625975       1.53951766       0.07351629      -0.02487326       0.07112614
Ar      13.56054601      15.12641572       2.04154662      -0.02717108      -0.04702570      -0.08245755
Ar      16.54189289      13.26618267       0.72685420       0.04503244       0.01913444      -0.02117711
Ar       0.42519514       2.56292132       5.64438372      -0.00235306      -0.01224129      -0.08903270
Ar      11.54737056      11.51230124       9.74447223      -0.01641108       0.01706698       0.06508434
Ar      17.03868973       8.11733198      10.96664713      -0.00203502      -0.00670100      -0.02460863
Ar      12.36655059      11.81930032       2.57015082      -0.05475756      -0.05958805       0.00094143
Ar       7.16183496      13.31779566      14.61238169      -0.08410801       0.00928438       0.08202787
Ar      14.68622267       6.75939986      13.60705812       0.00632256       0.02775726       0.02896820
Ar       1.90812192      13.03350612       6.48070111       0.02544888      -0.02990481      -0.06770582
Ar       7.17108818       9.24915043      13.80757239       0.06649651       0.05057572       0.08877581
Ar       8.63157932      17.22792834      13.36799496      -0.19194895      -0.03902296      -0.01892436
Ar      11.98236701       4.49325171      10.43211959      -0.02502133      -0.01276803      -0.01167390
Ar      12.68360849      12.86016149      14.92989812      -0.06050143       0.00137553       0.04440020
Ar       2.54064451      15.75021629       9.08854331       0.02600128      -0.03304670       0.10256160
Ar      16.41937058      16.34080977       7.53687318       0.03955696      -0.00020973      -0.00180816
Ar      14.40288322       2.98826779      15.51535550      -0.09509304      -0.07004145       0.00894349
Ar      11.25584394       4.40130695       3.95810671       0.02587947      -0.01666718      -0.02361809
Ar      16.72220570       6.31649708       7.28376926      -0.03808895      -0.00445458      -0.04020317
Ar       1.04928508       7.18758355      15.48915901      -0.06451790      -0.00391483      -0.01439457
Ar       8.53085153      11.88141432       2.32147971      -0.03639981      -0.06092685      -0.08697577
Ar       3.23961524       1.84674527       0.99916848       0.11498594       0.01448986      -0.01000203
Ar      16.05152450       1.48055026      11.43535850       0.01162609       0.05848521       0.04529723
Ar      11.76333036      17.05382722      16.24142822      -0.05406256      -0.05999709       0.00801980
Ar       9.85564447       7.44881518      12.45900909       0.04541223       0.02349942      -0.00441321
Ar      11.55774600      15.18884741      12.72445540       0.01544467       0.00658629      -0.04705096
Ar       9.88779212      11.57865661      12.76741488       0.06073692      -0.00453450      -0.01260207
Ar      15.98983213      13.80429675       4.93493734      -0.00681383      -0.03537087       0.07768661
Ar      15.34775375       8.75796927      17.15553430      -0.08272873      -0.05610893      -0.04371149
Ar      11.24717865       9.86647865      16.86164607      -0.05690720      -0.02066728       0.11167430
