108
Lattice="17.35 0.0 0.0 0.0 17.35 0.0 0.0 0.0 17.35" Properties=species:S:1:pos:R:3:momenta:R:3 pbc="T T T"
Ar       1.94779314      14.89777325       6.68869052       0.05003292      -0.01422436      -0.12125360
Ar       8.96251991      10.61673018       3.05476758      -0.04410058      -0.06827203       0.00171323
Ar       5.59788642      11.19044914       2.00397975       0.00878374       0.03391309      -0.01153818
Ar      16.56406138       9.59887775       9.33579844      -0.00140431       0.03836899      -0.10385125
Ar       6.51044756       3.27772693      14.84526078       0.01493039       0.00635274      -0.01953649
Ar       3.51736763       6.43276473       7.53697871      -0.02756782       0.00874521      -0.03761771
Ar       0.20930252       4.48292375      13.41528137      -0.01192666      -0.04730422       0.00033221
Ar      14.89926643       5.35355140      11.13564865      -0.00068931      -0.02221113      -0.04194180
Ar      10.35030229       4.95994807       6.59813299       0.07865404       0.01469667       0.08507362
Ar      13.12970425       2.63956760      10.01746227      -0.00464102       0.04842992       0.00933126
Ar      16.43815869      13.09021697      10.15946535      -0.02618612      -0.03587853      -0.04574068
Ar      13.13743005       2.61336832       1.77471025       0.09516528       0.07556572       0.09874864
Ar      11.22450557       9.49499258       0.41520055      -0.02114438      -0.04016427      -0.00227489
Ar       5.21255406       2.91922575       9.20969033      -0.08086343       0.01262730       0.03206760
Ar       7.00811693       6.56931461       7.31754706       0.00061199      -0.07994109      -0.02866013
Ar       4.44753007       0.14030081       1.69746190      -0.01028104      -0.05258375      -0.00753283
Ar       0.93178742       0.26430805       0.67453918       0.07427211      -0.04525714       0.04736027
Ar       8.52591873       6.73349690       3.95669819       0.03804996      -0.01426865       0.01676233
Ar       7.19699563       5.03259554      11.00698945      -0.12863691       0.03635516       0.07474342
Ar       1.88558086       6.21941735       4.13100519       0.02066495      -0.00469201      -0.00841560
Ar      13.03498547       2.05642550       5.52909984       0.02210813       0.10122703      -0.10460814
Ar       4.31648937       1.16116458       5.25851409      -0.05622810      -0.03582540       0.00267295
Ar       3.60987534       1.52711536      15.96751768       0.03472805      -0.04550208       0.00019538
Ar       5.43714073       8.65109443       4.44796273      -0.07847495      -0.01421507       0.08399935
Ar       8.77298087      14.17414936       3.72862369       0.01590061      -0.03689329       0.08284599
Ar       4.85945353      15.91529574      13.89834174       0.06958632      -0.03041555       0.01906208
Ar       5.93651260       5.47727346      17.03397821       0.02324380       0.14633837      -0.08319157
Ar       9.62266773       4.57054539      14.03214090      -0.02195984      -0.08293507      -0.01289701
Ar      12.71504979      14.25790402       9.28082420      -0.01764533      -0.03971315      -0.02234218
Ar       4.04978259      13.92876540       9.43777139      -0.05571984       0.01165984       0.01531230
Ar       7.90709634       8.41900756       0.60665360      -0.00580895       0.00558006       0.13611011
Ar      14.23661191      16.86626115       3.20078003      -0.01908119      -0.12200419      -0.04354638
Ar      11.71990504       8.62791006       4.69273108      -0.02265437      -0.05221326      -0.04557459
Ar      14.11244456       6.81650420       1.37377170      -0.12879677       0.03618456       0.03157412
Ar      15.74809095       3.91151246      16.82643208      -0.09020003      -0.00173894      -0.09563461
Ar       2.43620100       8.11162075      14.57544037       0.00535780      -0.05092995       0.00310434
Ar       1.57491907       3.06736957       6.97294488       0.01159059      -0.08809630       0.01602405
Ar       4.00944506       5.35300884      13.06389073       0.02743974      -0.00415456       0.09099660
Ar       5.46311185      17.07661320      10.55646117       0.01386791       0.01131428       0.02223500
Ar       3.23959784       1.83899848      12.31347720       0.08845636      -0.00204146       0.01069874
Ar      15.14195579       4.22998794       7.13900526      -0.03649892       0.02673977      -0.04487468
Ar      13.47555220       7.50044911       8.44205654       0.03907316      -0.06110907       0.04031805
Ar       2.37145205       0.39096363       8.95282319       0.06285770       0.00670039      -0.00235651
Ar       5.61858083       9.87536961      15.57907831      -0.03086073      -0.05293290       0.09133141
Ar      10.57660968       5.76650975       0.41071504       0.04318152      -0.01169118       0.04176348
Ar       2.17392013       4.77692017      16.95483826      -0.04955455       0.03611164       0.02681859
Ar       5.30093003       8.95358676      11.69355857       0.06033444       0.05862803      -0.01935270
Ar       1.97583104       3.08317425       3.31010646      -0.03140485      -0.05636584      -0.00896226
Ar       4.12407621      12.34170805      13.10224337       0.05245518       0.06038115      -0.09645378
Ar      17.22185720       2.62166820      10.13551475      -0.04053065      -0.06358334      -0.00503858
Ar      12.18541955      17.21004212      12.47719237      -0.07044588       0.03415588      -0.00319502
Ar       1.62340438       7.12228168      10.68449104       0.01752346      -0.02194104       0.09780397
Ar       6.99818502       3.15807914       2.15294090      -0.11365045       0.12281301      -0.01575479
Ar       9.00781877       8.27397600      10.05992601      -0.06358418       0.04862232       0.00645246
Ar       1.32017376       9.81187263       3.52928654      -0.03483248      -0.01311738       0.09750248
Ar       1.57899986       9.42902879       6.91624892       0.01028478       0.09035062      -0.07034536
Ar       2.40995139      10.76384041      17.18600889       0.01929278       0.09224139       0.06343149
Ar       1.26521906      14.23016894      15.92402619       0.09774332       0.10849393       0.00574167
Ar      15.73457395       7.89896623       4.62074939       0.02638558       0.01883165      -0.00695943
Ar       8.94098506       9.66351622       6.71649194      -0.01612341      -0.01623937      -0.08980181
Ar      13.86428133       0.45558531      16.03178599      -0.06034033       0.04403944       0.00051945
Ar       5.21400984      15.01171392       4.89288438      -0.08030865       0.05907833      -0.01284703
Ar       5.40782419       4.67512484       4.99574412       0.04743680       0.04102417       0.01040223
Ar      16.04755923       3.70793371       3.52708526       0.05652063       0.02088942      -0.00518635
Ar      16.67200278      12.18278141       5.93971215       0.00061158       0.00300680      -0.01086156
Ar       6.77295859      12.71996470       7.20108687       0.01335935      -0.06331870       0.02635062
Ar       4.48934862      14.21934124       0.17367728       0.01051059       0.05274811      -0.08462092
Ar      10.89472642      11.05763613      10.44755146       0.04888420      -0.06838440       0.00362468
Ar      12.61576990      11.58873534       3.38935718       0.03670028      -0.08292641      -0.03030933
Ar      10.52118459      10.49793430      14.22691157       0.05313915       0.08043264      -0.02013271
Ar       7.09909742      16.34082767       7.63230963       0.06309861       0.07743745       0.11326584
Ar       9.29338425       2.15714633       9.77556018       0.06907895       0.06727437       0.01720408
Ar      13.63771975      11.18084763       7.79718778      -0.03518778      -0.01032381       0.01138130
Ar      13.15621365      14.49557184       5.78703191      -0.11111708       0.11932700      -0.02087976
Ar       9.36364616       1.74269656       4.44499022      -0.12544357      -0.04967064      -0.01598701
Ar       9.13143064      14.92228699      10.24852551       0.05089914      -0.10220586       0.00426313
Ar       8.57874342      12.04609886      17.32019765      -0.05364154      -0.07006215      -0.01142537
Ar       0.09962650       0.84370903      13.69006440      -0.00013690      -0.03852199      -0.04179008
Ar      15.84674279      11.51263801       2.02598904       0.07998084       0.12404123       0.04199242
Ar       0.05833513       0.26969516       4.51217047      -0.02490195       0.04002107      -0.08717092
Ar      15.79603213      15.04513317       0.94980979      -0.05128057      -0.12119338       0.00911360
Ar      15.63143833       0.42853806       7.39433430       0.00087301       0.07106977       0.08577967
Ar       8.68675261       0.06168060      13.53055000       0.01475513       0.05177495      -0.07177616
Ar       1.71800075      15.33286397      11.89925017      -0.05392207      -0.08671760       0.04506793
Ar      12.05215613       8.49304679      12.00831186       0.06617083      -0.06109116      -0.01959327
Ar       5.25984445       9.45964190       8.48294261      -0.04626523      -0.03758715      -0.03513019
Ar      16.45383444       8.28608666      12.67559451      -0.00373167      -0.02624719       0.01754414
Ar       3.49257098      11.93149909       5.33017951      -0.05265922      -0.05502590      -0.00384392
Ar       8.02702522       7.83534623      13.85965281      -0.05712968      -0.00490438      -0.02202790
Ar       7.35276329      13.03025638      14.13961040      -0.08081530      -0.06334725      -0.00606263
Ar      13.61579653       6.41630486      14.27883789      -0.04547229       0.02715437      -0.02004258
Ar      15.12143092      10.25651028      15.44885387       0.05174056      -0.09455942       0.01970694
Ar      14.93475552      14.48691299      14.52426983       0.01089905       0.06869318       0.00770058
Ar      15.38577411      16.49355590      10.42002363       0.06813518      -0.12175148      -0.00882905
Ar       2.39082228      10.78273486      10.17675650       0.01029134       0.01464751      -0.09276295
Ar      10.15447857      13.02682790       7.09754845       0.01526322       0.00775799      -0.03939151
Ar      13.57359147      11.95451634      12.32445188       0.07316848      -0.01533096      -0.03762459
Ar       3.87558963       7.79808865       1.44081696       0.06067467       0.10454042       0.05024113
Ar      11.38808446      16.40144442       0.64496857       0.07390723       0.00290641       0.04939199
Ar       1.79207663      14.17132021       3.16587407       0.00775149       0.01571630      -0.01974668
Ar      10.51836731      16.90642544       7.22916187       0.00438974      -0.03060375      -0.04076297
Ar       7.44262803      17.22840015      17.04144151      -0.04378787       0.01728679       0.03792198
Ar      11.21120996       5.74331664      10.46596772       0.00591104       0.01759824      -0.09282906
Ar       6.96046545      11.66480157      10.82262513       0.10200052       0.08826959       0.01865653
Ar      11.16044743      14.29607375      14.57062381       0.08092427      -0.00719029       0.00302063
Ar      12.70148899      12.82237088      17.26351730      -0.03793358       0.00540453      -0.01401938
Ar       0.71298139      11.68130952      13.57343947       0.03124631       0.00840231       0.09309434
Ar       0.30168779       7.63507014       1.15287825      -0.02532646       0.01744833       0.04653604
