108
Lattice="17.35 0.0 0.0 0.0 17.35 0.0 0.0 0.0 17.35" Properties=species:S:1:pos:R:3:momenta:R:3 pbc="T T T"
Ar       0.15937353      14.46020365       8.24795413      -0.04045384       0.07216023      -0.02205473
Ar       8.31028338       9.84011532       3.75437373       0.04290188      -0.00314885      -0.00159672
Ar       5.44226767      10.90055405       2.09896372       0.03123257      -0.05208109      -0.05431423
Ar      16.18556636       9.55943599       8.77832136       0.03056257      -0.10306090      -0.05430860
Ar       7.01606800       3.27465165      13.48380599      -0.05080007       0.01421028       0.04328894
Ar       3.78265548       5.06466053       8.68146079      -0.01835060      -0.02355170       0.00599015
Ar      17.07540737       5.08803026      15.58663001      -0.09895770       0.02579106       0.05646148
Ar      15.33450276       5.61935829      10.06633075      -0.04557356      -0.06970276      -0.02531815
Ar      11.08970255       3.83914815       5.43379490       0.05429081      -0.02343240      -0.02815029
Ar      13.66347353       2.07343581      10.71838127      -0.03945690       0.07753996      -0.05151313
Ar      14.26487076      13.58962924       9.99502097      -0.04249754       0.04693917      -0.01566550
Ar      12.47287277       1.79349920      16.68316897      -0.05214310      -0.01465691      -0.02064278
Ar      12.01587189       7.24824042       3.40370273      -0.02800319       0.07781920       0.08612166
Ar       7.83053055       4.00463273       7.68517904       0.13753786      -0.00929640       0.01068329
Ar       7.21052932       6.89221136       5.76177120      -0.07470692       0.06421156       0.09760296
Ar       2.04803346       0.57135763       2.35285523       0.09063325      -0.02477596       0.09186870
Ar      16.36306765      16.70980633       4.35775491      -0.08467303       0.03372100       0.02270165
Ar      10.55923815       4.25950998       1.95680630      -0.05639960       0.02778221      -0.05827824
Ar       7.75518489       5.44345297      10.82054928       0.07758041      -0.04157652      -0.01187925
Ar       3.64043189       6.63240662       5.12353143      -0.05084270       0.05542809      -0.08692730
Ar      13.95942878       5.95179672       6.65676339       0.01214035      -0.12736383       0.03045320
Ar       4.68078938       2.41313483       6.02496986      -0.00982016      -0.09547308      -0.03072756
Ar       1.90616519       2.67160613      16.37154192      -0.10334036      -0.13727582      -0.01230620
Ar       4.72785424      10.43568159       5.63703234      -0.02518065       0.04750658       0.06349504
Ar       8.35997971      14.08250593       2.57889463      -0.04987031      -0.08231987       0.03968415
Ar       7.00542963      16.77356509       0.19700208      -0.07921925       0.01845770      -0.00559154
Ar       8.64385694       2.85224285      16.97448246       0.08260874      -0.00976971       0.05925218
Ar      10.51629997       3.07084139      13.82041333      -0.05281525      -0.05220109      -0.08660986
Ar      11.17894783      15.56992847      10.37843979      -0.01474615      -0.07524209      -0.06248261
Ar       2.82992441      15.28958420      10.74495443       0.01988482       0.04293188      -0.00820055
Ar       8.48013606       9.82733658       0.37945564      -0.05765014      -0.04023333       0.01443777
Ar      13.54282137       3.04771221       2.64088057      -0.03173224      -0.03348124       0.05832515
Ar      10.46901285       7.07960022       6.72161551      -0.06611237       0.12064674      -0.03239504
Ar      14.07479423       5.36614963      16.64342092       0.14878675      -0.00659719      -0.01116927
Ar      15.94132072       1.54499139       0.51110326       0.01832422       0.01342239      -0.04145821
Ar       1.75375505       9.05060337      14.35690858      -0.00323887       0.02428512      -0.06498442
Ar       1.82802620       4.48847180       2.84107859       0.10851388       0.05377185      -0.00902430
Ar       3.39133133       4.81944776      14.04254579      -0.02263940       0.08260360       0.04391987
Ar       5.44514959       1.94253953      10.50548326      -0.07023861       0.03835098       0.01643991
Ar       3.87525289       0.85580549      13.81326422      -0.00007731       0.08196645       0.03494739
Ar       0.31799925       5.21692221       7.08171268       0.01440153       0.01242359       0.03831891
Ar      12.71354627       8.93186862       8.73062486      -0.02238334      -0.04721694       0.05991596
Ar       1.74706331       1.47874475       9.00261171       0.14665408      -0.00579599      -0.01225944
Ar       5.66908355       9.92102464      15.27622837      -0.04273346      -0.05438138      -0.00601202
Ar      10.27327050       5.84869738      16.16999946      -0.05349298      -0.09335867       0.00431143
Ar       2.63298124       6.68237060      17.12081763      -0.04159812      -0.07999952      -0.09041244
Ar       5.57493582       7.76259598      12.29790746       0.04286712      -0.09735886       0.00076123
Ar       4.85144081       3.72056368       0.18476255      -0.09174746      -0.02354590       0.01850134
Ar       2.50937077      13.59339720      14.42308593      -0.01629483       0.09292356       0.03743215
Ar       0.75462245       2.92571886      12.27525968       0.00703378       0.12182676       0.01285093
Ar      12.52179554      16.54761049      13.87431436       0.07915469       0.00316437      -0.01653749
Ar       1.28585670       7.73226503      10.64566046      -0.00246014      -0.00025229      -0.02240313
Ar       9.18796567       1.07348099       3.34677585      -0.04302776      -0.05803809      -0.06516378
Ar       9.14366397       8.70632206      10.65376082       0.02980898      -0.01966983       0.01881064
Ar       1.27199146       8.88669171       2.60441512       0.00350574      -0.05906995      -0.07320169
Ar       1.09570846       9.22899924       6.07678576       0.03541527      -0.01512332       0.02890123
Ar       2.96528284      11.30472670      17.19279259       0.14556407      -0.01119821      -0.02239686
Ar       0.88465729      16.72244625      16.00976887       0.03907141       0.07732031       0.06485310
Ar      14.94645672       9.47766509       5.17619913       0.04429107      -0.06386202       0.02469935
Ar       7.62185326       9.93723441       7.48264794      -0.03663537      -0.05095476      -0.03707498
Ar      14.82259955      15.35423261      16.35100740      -0.05545106      -0.04823615      -0.01804125
Ar       5.91618623      16.59194600       4.12152210       0.02490408       0.02107179      -0.06715311
Ar       6.48138252       4.11436862       3.48007329       0.01239816      -0.00749363       0.10881144
Ar      16.05463049       6.30610367       2.34508125       0.03262698       0.00052164       0.03894225
Ar      15.67471223      12.41205186       3.27456434       0.06306205       0.01292643       0.00358289
Ar       7.62738788      13.23749579       6.03174400       0.00455249       0.00401939       0.03048181
Ar       4.25068255      14.47427951       0.73780449      -0.02935647      -0.02845937       0.01351763
Ar      10.41689762      11.81030954       9.21779079      -0.01354397      -0.05581558      -0.00609694
Ar      12.70667926      13.69501583       2.50829453      -0.01943233       0.01254366       0.05248190
Ar       8.94178765       8.67418656      14.09673971       0.06391248       0.03068664      -0.06310654
Ar       7.33081506       0.72121685       7.64363801       0.05298162      -0.01360866      -0.02915948
Ar       9.45991536       2.21396183      10.33214794      -0.01222964       0.06273942       0.05287469
Ar      12.11709154      11.57379007       5.69858839       0.03112743      -0.01465459       0.04619762
Ar      14.03597512      14.46664181       6.30976752       0.01620830      -0.06339247       0.06706390
Ar      12.53944589       0.12153889       4.53494139       0.01597365       0.00539130       0.04564131
Ar       7.73572293      14.11639243       9.59752272      -0.00051755       0.02843722       0.00549607
Ar      11.64173235      12.94084647      16.47491988       0.08482608       0.06172296      -0.08372433
Ar      15.74031148       0.88334724      13.73217045      -0.06444105       0.08377513       0.00161952
Ar      12.90387760      10.08825334       1.76060636       0.05389781       0.04780804       0.03410530
Ar       2.61690100      15.93827394       6.27450885      -0.03352963       0.02008247       0.02589743
Ar       0.30310526      13.51347511       0.47668373      -0.05481937       0.00589185       0.05771411
Ar      15.37870785       2.99168477       5.66569579      -0.06243525       0.05641973      -0.00107523
Ar       8.76275611      17.02985546      14.47581929      -0.01076263       0.01310665       0.02318208
Ar      17.13035576      14.77943168      12.15966637       0.02151153      -0.07153876      -0.01223512
Ar      11.50550338       6.41617596      12.36337887       0.01574066       0.01108608      -0.00522897
Ar       4.61579142       8.73070731       8.95598908       0.05093995       0.10310716      -0.03476683
Ar      16.03716723       7.86122833      13.23246276      -0.06276297       0.07514782      -0.08432119
Ar       4.61278218      12.78143612       8.44289172      -0.01969388       0.01904453      -0.01367712
Ar       6.33638866       6.45409282      15.51976817       0.00918935      -0.04963423      -0.13417147
Ar       5.74024744      15.08232344      13.45345203       0.02636759      -0.01408737      -0.01884080
Ar      14.17109274       3.90677788      13.63170102       0.03597496       0.06132331       0.03582063
Ar      12.67578318       8.87167609      15.84938195      -0.01692510      -0.05499256       0.02592373
Ar      13.66924360      13.19229698      13.34984873       0.03591317       0.05570515      -0.00037812
Ar      15.77340209      16.99447526       9.52570792       0.06229905       0.05463585      -0.06470693
Ar       2.52419096      11.65567219      11.05435460      -0.01360197       0.01433636      -0.03034347
Ar       9.97474569      15.61804197       6.60876246       0.00608668      -0.01544178       0.02600639
Ar      12.91537382       9.49503152      11.88977549      -0.09998115      -0.12645515       0.10811183
Ar       5.68801110       7.53190417       2.14825767       0.00779234       0.00439432      -0.07542742
Ar      10.55221215      16.42276168       0.40568353      -0.03683616       0.07459158       0.12794997
Ar       1.99391126      12.78880393       3.90805044       0.04207331       0.01589506      -0.08104232
Ar      11.96948599       0.86051053       8.10861200       0.03414428      -0.07476419       0.00301980
Ar       7.67110266      13.38425955      16.11819097       0.00486461       0.02268392       0.03058567
Ar      11.81802587       4.62031966       9.12734937      -0.00492739       0.11936621       0.06589183
Ar       6.68496482      11.38972698      11.71123294       0.05304748       0.01173546      -0.13170709
Ar       9.46314128      13.73956008      13.26796547      -0.00957759      -0.03603692       0.03120864
Ar      15.02299113      11.69006218      16.69864030      -0.02714252      -0.04796500      -0.05191705
Ar      16.83395986      10.97898887      12.72730708      -0.04224223       0.00258609       0.07183882
Ar      16.43285507       8.52378058      16.57528185       0.00494133      -0.01234502      -0.07081596
