108
Lattice="17.35 0.0 0.0 0.0 17.35 0.0 0.0 0.0 17.35" Properties=species:S:1:pos:R:3:momenta:R:3 pbc="T T T"
Ar       0.80560169      10.14049991       7.48692722      -0.00834700      -0.03036452      -0.00704985
Ar       1.71523298      16.40411496       8.46957651       0.06557603       0.05786023       0.00230563
Ar       3.44779723      11.12006194       9.89449015       0.03164679      -0.05614198      -0.11800157
Ar      11.04219156       4.19873320       3.36710505       0.06356240      -0.06315979      -0.04810407
Ar       4.45578158      14.76464303      15.10218589      -0.01646707      -0.00457697      -0.06282181
Ar      14.07001496      10.60603942      13.07761501      -0.01760754      -0.10784180      -0.05132906
Ar       1.41855688      16.19308767       2.00565627      -0.05233412      -0.03086562      -0.02125284
Ar      15.20558793       4.46623370       9.96635608       0.00406987       0.04113361      -0.04294129
Ar      13.93592248       2.27685543      14.28242100       0.00245035       0.07368902       0.00815688
Ar      14.35821542       3.82420109       2.86697687       0.03836542       0.04679575      -0.01231704
Ar       5.01193218       7.50455291       9.55477815       0.01079032      -0.06124099      -0.01750624
Ar      13.74361686      11.27391121       7.91148504       0.02749988       0.00295522       0.06418360
Ar       1.83924911       3.58716157       9.24737552       0.00398576       0.09839735      -0.00447274
Ar       3.61704641       7.42568549       5.98436756       0.00440162      -0.02772398       0.04202516
Ar       3.84764657       0.85886972      11.65643317      -0.05148683      -0.03724684      -0.01880266
Ar       5.85453230      11.43632836      17.06909060       0.00301357       0.09399918      -0.01126111
Ar      13.85006394       5.33375427      16.61461619      -0.03414335      -0.04193046       0.03395742
Ar      17.23367561       1.93016913       1.61166761       0.05120405       0.00927992       0.04163099
Ar       4.08957669       3.66419638       6.00378094       0.00072868       0.12907371      -0.02013388
Ar      12.33248026      10.84473121       3.29487638      -0.06324990      -0.06236134       0.04303351
Ar      10.32602246       8.02526828       2.95338945       0.04317089      -0.03591205       0.07891245
Ar       8.01392878      10.53968638       9.52296903       0.04848872      -0.03974101      -0.02413716
Ar       5.78075385       3.70647295       9.69949821       0.11562165       0.10366458       0.00029228
Ar      11.31911799      10.96548358      10.54155343      -0.00331406       0.05579244      -0.02715265
Ar       6.43518207       7.04387953      14.63699344      -0.02983481      -0.02352921       0.08827788
Ar       4.01788890       1.58585049      15.09541606      -0.07871467       0.00358276      -0.04286223
Ar      10.48576867      16.06503153      16.57046723       0.00133117      -0.15153331       0.00677595
Ar       8.97343703      11.43074126       1.47038463      -0.15551276      -0.00022180       0.01126051
Ar      14.60667634      15.36390076       7.85641978       0.00575741       0.00749805      -0.06143081
Ar      10.66192995      15.24381215      10.09497975      -0.05803652      -0.06719817       0.05729152
Ar       2.79228241       0.43051587       5.53062444       0.03797521      -0.01405847      -0.08802050
Ar      10.38908588       3.13185943      17.27435012      -0.07799310      -0.12403745       0.00837210
Ar       5.45207986      10.17835571       7.00178645      -0.04742215      -0.01244552       0.05438817
Ar      10.60478841       7.43050934      10.22108957      -0.07179270       0.00086281       0.01109813
Ar       1.68230747       8.17918468      14.61778730      -0.00732612      -0.02415207      -0.00996634
Ar       8.59995816      12.82411437      15.24379549       0.03147479       0.08489616      -0.06970961
Ar       3.38133443       5.85140246      12.28529632      -0.00098620      -0.02973298      -0.00582191
Ar      10.52906109       6.29292603      14.70274534       0.06742343      -0.06682616      -0.00263913
Ar      12.50210361       1.72917745       9.46655943       0.07276188       0.02661680      -0.06404540
Ar       0.55373248      16.12712839      12.22977890      -0.01041067       0.06112104       0.06870820
Ar       4.62000072       0.04564533       0.73896601       0.03621138       0.07009738       0.02600114
Ar       3.37406342      14.50102323      10.93971392       0.07997067      -0.01558023      -0.02079699
Ar       6.19187999      11.80908096      12.50340105       0.01606663       0.09330204      -0.00554309
Ar      16.80600814       0.52629363       5.14680813       0.00603910      -0.07868532       0.10697843
Ar      14.16588161       8.21575191      10.29093197       0.00645090      -0.08386931       0.00639608
Ar      14.70951113      15.35312357      17.34405893       0.02849298      -0.04989275       0.06751681
Ar       8.73431728       9.29133397      12.61893140       0.00926516       0.04147174      -0.07626147
Ar       7.61077200       5.90287804      11.25498266      -0.04699579      -0.00240669      -0.10100843
Ar       2.62510928      11.85903570      13.87552966       0.01532828      -0.06832301      -0.04779447
Ar       4.14551736      14.55462290       7.48037730       0.06943409       0.02225367       0.01875171
Ar       8.34895673       6.74060105       7.41388549      -0.11273251       0.06006142       0.02370200
Ar      15.42249588       8.53096973      15.93072868       0.03868611       0.07296429      -0.03673568
Ar       1.52227898       9.41870681       0.65481560       0.06302195      -0.03146720      -0.01740939
Ar       0.08572044       9.49813050      11.06429809      -0.03203083      -0.04801818       0.10022252
Ar       6.11802518       3.35466511       0.44726750       0.02694272      -0.07539339       0.08967601
Ar       6.18304153       0.07734332       7.59193045       0.12506184       0.01178519      -0.03854534
Ar       3.88499527       6.98181461       2.10132851       0.06039919       0.01712933       0.00225833
Ar      16.08734155       1.11715406       8.35560722      -0.11695085       0.04275287      -0.07316077
Ar       0.45256606       2.75617138      12.48141939       0.03952238      -0.00947666       0.03918190
Ar       7.93444568      14.21910199       4.39971582      -0.05881771       0.02682765      -0.03475371
Ar      13.94338785      13.66903119      11.02449167       0.00683937      -0.09944010       0.05944635
Ar      11.65495365      13.80990460       6.86248687      -0.01468394      -0.04359288       0.03890510
Ar      13.20412276       1.76798828       5.71482497       0.04345917       0.00044266      -0.01287729
Ar      14.59056278       8.08584401       2.01267359       0.00812784      -0.02732075       0.00506197
Ar      16.75867621       4.08340680       6.74516476       0.02297127      -0.02263901       0.02477723
Ar      10.03842787       0.27765995       6.96589683       0.03713098      -0.09105429      -0.09490839
Ar       2.91698955       3.10976561       2.98252743      -0.03915419       0.04080141      -0.03936983
Ar       6.08773314       1.26995255       3.75325170       0.11373203      -0.02141747      -0.01632930
Ar       2.95558698      10.37867163       4.15184942      -0.03152001      -0.03588701       0.00575993
Ar      12.16718981      12.87851504       0.27332245      -0.01148464      -0.01108290      -0.10495389
Ar       6.38233700       2.86827090      13.13604582      -0.04794260       0.02937193      -0.11137012
Ar       8.52663624       3.04758951       5.99439601      -0.04665294       0.04381845       0.04274210
Ar      16.37913572      12.90825776      13.90310497      -0.02685403       0.08565543      -0.04231721
Ar      11.39570876      14.67825541       3.38880095      -0.01055178       0.01797375       0.06680213
Ar      11.72436177       9.07646343      16.63834247       0.05225440       0.00958066      -0.16761833
Ar      17.00934351       6.14854001      12.77590236       0.02880350       0.01034486      -0.08007205
Ar       4.25198447      14.26150660       3.62242813      -0.04757353       0.03218962       0.00224117
Ar      11.02293130       0.13370328      12.73329385      -0.05109666      -0.06570881      -0.02884961
Ar       1.40629532      13.56683135      16.86847411      -0.01984249      -0.04250977       0.06255166
Ar       0.92336099      13.98389563       5.82323037       0.05574000       0.02241694       0.09985770
Ar      15.46410475      11.62710088       0.11765273      -0.00126779      -0.04426472      -0.05687788
Ar      11.00920500       3.84165265      12.36357876      -0.09950968      -0.05802873       0.07362786
Ar       8.55174397       1.60766673      10.31395524       0.00896581      -0.01233649      -0.06533612
Ar       0.22740922       7.55886699       4.48180044      -0.03682202       0.08121742       0.04173053
Ar       9.41160369      11.32148097       5.72768340       0.00364905       0.01985214       0.01554471
Ar      11.57296075      13.54091804      13.89132804      -0.04699597       0.00246385      -0.09204445
Ar      17.15429805       4.20515144      15.64500963       0.01587226       0.05611241      -0.00372217
Ar      15.12022405      14.83915142       3.89876531      -0.05080196      -0.06777349       0.00696352
Ar       8.48411962       6.72075533       0.06015050       0.03946101      -0.06966164       0.07351124
Ar       8.05955835       0.64738012      15.31170456      -0.00285921       0.00081168       0.01104648
Ar       6.69494364       5.68420778       4.15557685      -0.08888807       0.01587605      -0.04006241
Ar       9.77823848       0.63204873       3.09407703      -0.00189842       0.06780341       0.07423710
Ar       3.18131062       5.36188364      16.31777779      -0.11939966       0.05364761       0.01568866
Ar       0.15267242      12.83261975       9.93218615       0.02465635      -0.03706180       0.02809448
Ar       0.24268086       5.85736893       1.40480170       0.01722596       0.05162566      -0.00739649
Ar       0.61662819       6.77443806       9.19498631       0.00895478       0.00386583       0.09939665
Ar       8.14857106      13.89428351       7.89241792      -0.11025416       0.00999799       0.05409382
Ar      11.27639647       8.76142443       7.23744925       0.00397092       0.01173421       0.07061764
Ar       6.48581999       8.89061818       3.72192849       0.01440866       0.02136346      -0.06408286
Ar      13.42604649       1.50898946       0.18703211       0.02116486      -0.04533783       0.03563585
Ar       1.02042830      17.18859061      15.87890605      -0.03410248       0.02394677       0.02340155
Ar       7.42545574      15.19300475       0.64985559      -0.01582734      -0.01341015       0.06783621
Ar      13.57762605       6.55020400      13.14075544       0.04821524       0.15059069      -0.07574064
Ar       7.21626164      15.48782275      12.79857317       0.08412927       0.01898411      -0.00430808
Ar      14.52071617      16.13529742      13.64780234      -0.02381871       0.07559851       0.06189106
Ar      14.53790579       7.10475461       6.49413897      -0.07848684       0.00292419       0.04847468
Ar      16.64164594      11.14484098       3.93460885       0.07176335       0.07772427       0.02498804
Ar      12.02839539       5.01739046       7.74870874       0.12710704      -0.01011712       0.05574562
