108
Lattice="17.35 0.0 0.0 0.0 17.35 0.0 0.0 0.0 17.35" Properties=species:S:1:pos:R:3:momenta:R:3 pbc="T T T"
Ar       0.27462337      11.99026150       2.38943475       0.06892177       0.02121509      -0.01556988
Ar       1.14988052       0.74211674      10.48288526      -0.01188976      -0.01304272       0.01101803
Ar       4.35153456      15.74540202       9.68990444      -0.06639689      -0.01639769      -0.00634104
Ar      13.01009173       0.75994457       7.04172770      -0.05092556       0.08195203      -0.02757772
Ar       3.34187054       3.66398032      12.17338808      -0.09409870       0.00979058      -0.07304575
Ar      12.42685700       7.80924918      13.46022393       0.05687736       0.06521271       0.01432803
Ar      12.63921211       4.21375996       1.50920891       0.01831008       0.01325297       0.03049582
Ar      14.70644764       2.15226475      10.14626782       0.05948900       0.12551142      -0.03965714
Ar       9.45384258       8.46759351      11.75321700       0.03217082      -0.04475043       0.03308710
Ar      16.63348056       4.40409991       4.38547763       0.01563508       0.08779926       0.05110995
Ar       0.29804074      13.28486371       9.00154133       0.03885334      -0.03782942      -0.01132115
Ar      15.53180924      15.85221062       7.69247033      -0.05464385      -0.00943169       0.07537259
Ar       4.75389679       8.38892596       6.15322151      -0.03848821       0.04115802      -0.01062629
Ar       1.46287368      10.56888286       5.94127874      -0.01366121      -0.01501286      -0.01184043
Ar       3.43591751       8.92166186      10.06343432      -0.04551645      -0.02323374       0.05482604
Ar      10.19118359       6.20710497      17.29360471       0.00486045       0.14724930      -0.00456820
Ar      13.78004601       1.15798497       2.89809349       0.06192874      -0.00803441      -0.06288112
Ar      15.89175402      14.57441728       0.76481222       0.04748101       0.06070358      -0.02516154
Ar       6.23267334       6.51405760       3.26745025      -0.01482714       0.04874662      -0.05127507
Ar      12.14739445      15.16838021       1.57363407      -0.03322861       0.09679969       0.04791170
Ar       9.85585161       1.50305718       5.60534731       0.03640393       0.03149708      -0.00589907
Ar       7.25585833      10.09134918       9.62046350      -0.02605179      -0.08080026      -0.05966781
Ar       2.99309376       9.37789053      15.26331072      -0.00211016       0.02464822       0.06336811
Ar       8.29123108       7.52344933       7.12895606      -0.05855160      -0.06752983      -0.04172441
Ar      10.25475599       2.45114934      17.06375252       0.00521264      -0.11256196      -0.05311841
Ar       6.59945834       3.58353409      16.42516476      -0.02910876      -0.00459115      -0.01117993
Ar       9.00623995      17.24112475       2.79057491       0.01981438       0.00827767       0.08644638
Ar      13.60857547       7.72536682      17.04691951       0.03376895      -0.03112050      -0.12905052
Ar      12.00028827      14.56677494       8.43493635       0.01090073      -0.04076893       0.02485798
Ar      10.91425845      11.50462063       9.72473538      -0.03915696       0.07193850      -0.02318313
Ar       3.13098069       5.45205736       9.14886856       0.01985970      -0.05925735      -0.03283331
Ar      13.63878417      14.31047618      15.14625372      -0.12111137       0.01231788       0.05215085
Ar       7.19350509      10.07818189       3.77965120      -0.03530160      -0.10475257      -0.02285185
Ar      11.87333357       4.64528708      11.26387340      -0.03687262       0.04249907       0.02964190
Ar       3.23054211       5.59638243      16.28717966       0.04164274      -0.04667289      -0.02689684
Ar       9.01450861       5.55942678      13.69522752       0.05993494      -0.10809391       0.04560768
Ar       1.58319426       7.14732883      12.52234379      -0.10173625      -0.01130577      -0.01260832
Ar       9.61621987       2.07713585      12.31486280       0.12348391      -0.01838660      -0.02189678
Ar       8.74772779      17.06740580       9.79034373       0.03991242       0.08821886      -0.02009295
Ar       1.39607831      15.09352575      12.18982457      -0.04901865      -0.04785055      -0.03684251
Ar       2.61237472       2.14380345       0.70195816      -0.03188141      -0.05295459      -0.01134162
Ar       3.39852443       0.03248699      14.48662755       0.00600423       0.06542513       0.01825350
Ar       6.75251039      13.42957112      10.60401676      -0.03429674       0.06225404       0.02161200
Ar       2.35995757       5.28059166       2.29839314      -0.00981142       0.00960633       0.03132080
Ar       0.76242284      10.57949382      12.60967748      -0.09916304       0.05441754       0.05999676
Ar      14.46614518      15.13560747       4.54127116       0.02976458      -0.04598835       0.04400755
Ar       6.60149554      10.35337761      13.60806901       0.05980616      -0.06442982       0.05227373
Ar       5.43622143       6.91682877      13.05561349       0.05826548      -0.01520898       0.03263912
Ar       3.52450050      13.16256673      14.37065447      -0.01225360      -0.01200255      -0.05082682
Ar       4.28525960       2.18980236       9.33167128      -0.06336852       0.02482699      -0.02329386
Ar       3.45664799      12.20951119      10.90928494       0.00820556      -0.05031022       0.06342941
Ar       1.02072208       3.04740366      15.18288674      -0.09376524       0.00964083       0.04209407
Ar       7.06111920       7.46969625      16.50152964       0.05742412      -0.02298327      -0.02801025
Ar      15.20094243       8.14751691      11.47093984       0.06866061       0.00019771       0.01327654
Ar       4.34929382      16.87077548       2.35173019       0.10275388       0.04750679       0.06541876
Ar       1.34382551       6.70003527       6.28361502      -0.00054836      -0.06556514      -0.00172004
Ar       4.03968872      11.38745484       0.39807769      -0.00502675      -0.02083673      -0.05946663
Ar      14.49946993      15.84703068      11.96451558       0.01054039       0.00420703      -0.07399810
Ar      16.56032431       3.31751063       0.94172523      -0.03436770      -0.00599882      -0.00353077
Ar      11.32443570      10.76256818       5.85573334       0.06006091      -0.05637584      -0.04903871
Ar      14.38656103      10.77050343       8.77695977      -0.13379103       0.02310597       0.06575979
Ar      14.83643714       5.44870712       8.57930267       0.00418860       0.03224436      -0.03092614
Ar      17.02993976       0.77988843       5.52682824      -0.03046232      -0.09856303       0.11637296
Ar      13.35572804       4.08030825       5.18472678       0.03631395       0.00790663      -0.00399693
Ar       0.17953548       9.12108599       8.83572860       0.05411669      -0.04369181       0.01584179
Ar       8.37673235      12.87074371       7.34932384      -0.05882173       0.06635090       0.05882908
Ar       3.52262308       3.83646228       5.20522283      -0.00049937       0.04021662      -0.13944022
Ar       6.96281193      16.82857398       6.31920092       0.00314657      -0.01644626      -0.02115475
Ar       6.28663966      14.37951627       0.43227876      -0.02987320      -0.07972120      -0.04773729
Ar      14.33688873      10.91973207      17.14711476       0.10638278       0.01914092      -0.00725811
Ar       5.94097123       2.95443946       2.92361280      -0.02301632       0.02152593       0.02850868
Ar      10.96600200       4.04859534       7.81900212       0.02456346       0.06052178      -0.03980462
Ar      14.44630935      12.09404198      12.33036927       0.06790607       0.01439728      -0.02804194
Ar      10.71845042      14.84078538       5.25382143      -0.12247753       0.00237414      -0.01227242
Ar       9.34858209       3.83233472       2.93690734       0.00353836       0.08037047       0.09170350
Ar      14.29582130       1.84360790      13.65673718       0.08697220      -0.02600170       0.03173864
Ar       7.56222088      11.02065455       0.05594928      -0.06319900       0.03278256      -0.01875270
Ar      10.29550116      12.05657819      13.21856238      -0.01190782       0.13032062       0.01358333
Ar       2.47359781      14.47907235       0.59031494      -0.01835258       0.06376265      -0.04027747
Ar       7.61683784      13.76398229       3.85599714       0.03928950      -0.08736080       0.06255700
Ar      17.00013189      12.75734723      14.85823053      -0.00986711      -0.04458386      -0.00424974
Ar      12.21179428       7.84675226       9.15443721       0.01243833      -0.05796216       0.04625758
Ar       7.00969089       4.64687535      10.95899322      -0.00703703       0.02575820      -0.10394909
Ar      16.94787150       6.34773489      16.55596464       0.03508877       0.03347199       0.04608629
Ar      10.74219673      10.31728447       2.28601141       0.00756676      -0.00811020       0.01928217
Ar       6.95315235      13.74872603      14.41253381      -0.03439696      -0.08101745      -0.03758632
Ar      16.80792454       4.49658930      11.77934079       0.04000616      -0.01188263      -0.04456123
Ar       0.73103318      14.00071918       5.41564838       0.04142661      -0.02001711      -0.01006669
Ar       9.49305518       7.39963961       3.97720375       0.01147023      -0.09784209       0.11083205
Ar       6.79410560       0.34369652       0.05679936       0.01458783       0.01525374      -0.09904707
Ar       7.56476675       4.06190416       6.20384067      -0.03586376      -0.04175728      -0.10072905
Ar      11.11410190      12.68312257      16.51709389      -0.10292013      -0.06156281       0.06846752
Ar       2.87121981       9.14120292       3.09152840       0.01690070      -0.05405420      -0.05105625
Ar       3.71982489      15.87844375       6.01949174       0.06817674       0.07401887      -0.01265355
Ar      12.90597692       0.55172851      16.45597539      -0.01545304      -0.05000109       0.02127588
Ar      15.28229062       9.35333969       5.78407394      -0.01600182       0.00520427      -0.08959929
Ar       4.34683075      12.58088245       7.49934040       0.03483698       0.03355134       0.01175590
Ar       9.95082472       9.33080565      15.54517074       0.03055666      -0.00214771       0.01864134
Ar       4.19055911      12.66732435       3.90677430      -0.05218618      -0.04237938       0.05017478
Ar       0.65627831      16.77588763       2.53827300      -0.01796697      -0.02012329       0.08171257
Ar      16.99011290      17.05816408      15.09627616       0.04947588       0.02116790      -0.00469527
Ar       9.74715495      15.58600987      15.96486668      -0.13720486      -0.02975557      -0.04736252
Ar      12.45422029       4.66772862      15.06580117      -0.04511317       0.08327663      -0.03022327
Ar       6.24666490      17.29768236      12.13454722       0.05756846       0.10244204      -0.03542801
Ar      10.95966992      15.75700831      12.76377941       0.01166263       0.04206864      -0.05726267
Ar      13.92075897      12.10628011       3.24799835       0.03334394      -0.07771785       0.09427361
Ar      16.28289212       8.54843808       2.57540884       0.04081001      -0.09383115       0.05455307
Ar      12.91469427       7.34929324       3.47686184       0.08430801       0.07250484       0.08431862
