108
Lattice="17.35 0.0 0.0 0.0 17.35 0.0 0.0 0.0 17.35" Properties=species:S:1:pos:R:3:momenta:R:3 pbc="T T T"
Ar       1.20317589      14.84225986       6.92550224       0.03599250      -0.04715696       0.01660587
Ar       8.42039602      10.41538925       3.65945458       0.00327224      -0.00908999       0.00205166
Ar       5.61244745      11.46214049       1.37547208       0.03843996      -0.04080089       0.02688602
Ar      15.41573513       9.68266091      10.14118543       0.01103480       0.02467155       0.07439778
Ar       6.15230042       2.16362375      12.96973734      -0.01334644       0.01189895       0.03602144
Ar       3.18218254       5.84229566       8.19981721       0.05032573       0.07682637      -0.01343208
Ar       0.03156329       5.03798738      14.24887543       0.03455067      -0.08110261      -0.01853998
Ar      14.88068225       5.72734003      11.06823421       0.07094951       0.08273019      -0.00164092
Ar      10.69288681       5.03197694       6.19567205      -0.01889937       0.01246496       0.05135344
Ar      13.83718403       1.68773698      10.18353143      -0.05269156      -0.10008913      -0.10504854
Ar      16.11751429      13.53281661       9.71122319       0.03517389       0.06945364       0.06291667
Ar      10.62598226       2.57406608      17.06414553       0.06055860       0.00150357       0.02858244
Ar      11.20320739       9.76066995       1.03009394       0.10455431      -0.04789992       0.01701743
Ar       5.88319173       3.12082958       8.52885894      -0.03162097      -0.04897699      -0.04485716
Ar       7.74747020       6.78336451       7.58906324      -0.01778703      -0.00425359      -0.00179151
Ar       4.27389697       0.48769276       1.58815148      -0.01743237       0.02649208      -0.04048867
Ar       0.77403723      17.19467676       0.65167250      -0.03656900       0.04966274      -0.08364705
Ar       8.50831394       6.55372026       3.89113857       0.03724125      -0.01843287      -0.07087551
Ar       7.69457671       5.32229104      10.90355425      -0.04527803       0.01235676       0.02886708
Ar       1.90616409       6.86030567       4.39157839       0.01131883       0.00483091      -0.05990164
Ar      13.85739635       2.37240440       6.74889627      -0.09957065      -0.00506259      -0.03283526
Ar       5.23244393       1.16666784       4.83525583      -0.04517144      -0.03986956       0.12916841
Ar       3.86119823       2.46039738      15.70974953      -0.02709351      -0.08140205       0.00376977
Ar       5.30442434       8.92828639       4.89228359       0.01938008      -0.08148375      -0.00071836
Ar       8.46344785      15.33342366       4.15076619       0.07985112       0.09875209      -0.02398667
Ar       4.02534278      16.31279828      13.71363419       0.02507858       0.08400755      -0.02268738
Ar       6.36893547       4.32078992       0.62462407      -0.05048684       0.03701324       0.04614295
Ar      10.33971332       3.67242275      13.67228153       0.10190626       0.09054904       0.14057673
Ar      12.27532097      14.86071435      10.53488013       0.09442874      -0.03524590      -0.05581264
Ar       4.33782168      13.91218144       9.03967801      -0.02352223       0.01268462       0.06922959
Ar       7.75213087       8.63616804       0.21534748       0.02246140      -0.06250684      -0.04724598
Ar      14.56975859       0.29500292       3.91853769      -0.09077628      -0.05906703      -0.05138523
Ar      11.51094027       8.88033449       4.56045081       0.04453160      -0.08677591      -0.04823670
Ar      13.12014016       6.43980431       2.77567899       0.02531130       0.05072722      -0.02865019
Ar      16.61797055       4.10113770       0.37421795       0.02428241       0.05034035       0.06693190
Ar       2.49530094       8.44264324      13.89617168       0.01466901      -0.12748932      -0.00560135
Ar       1.39923722       3.48615749       5.29867430      -0.06285526       0.08967897      -0.00773767
Ar       3.46297713       4.58431839      11.95685854       0.10322454      -0.02183838       0.01351213
Ar       5.56878221      16.86473363      10.21873393       0.02274169      -0.05202649       0.12629137
Ar       2.56072402       1.50380666      11.96813502       0.02290445       0.05139504       0.01601811
Ar      16.18224109       5.38124258       7.57725333      -0.12101369       0.03196608      -0.06680262
Ar      12.08767230       7.44864420       8.54861271       0.04362873      -0.10958853      -0.02494289
Ar       2.90540559       1.30940696       8.02490748      -0.11077876      -0.00632231      -0.00784871
Ar       6.25597964      10.75937408      15.26937741      -0.09996479       0.04628358      -0.01487286
Ar      10.38445739       6.43416916       0.07894384       0.03710563      -0.10793292       0.03810379
Ar       3.37338652       5.85070823      15.70426935      -0.04514002      -0.06476591       0.09810949
Ar       5.49809995       7.84919016      11.56774480      -0.08732146      -0.00677295       0.01648887
Ar       2.35818688       4.22729024       1.82305050      -0.11354842      -0.05144298       0.06591033
Ar       3.36784998      12.04714208      13.64936238      -0.03162229      -0.00230358       0.03847732
Ar       0.20048215       3.36096219      10.20686846       0.02977813      -0.01626439       0.12057933
Ar      12.40930670       0.51069856      13.97191290      -0.01871458      -0.11604695      -0.05823211
Ar       1.24840237       7.16399892      10.97952017       0.03380139      -0.01172808       0.02518994
Ar       8.04736973       0.92597305       1.70007134       0.03257491       0.02104926       0.05648972
Ar       8.92206753       8.32811262      11.02230421       0.11597623       0.02967386      -0.00815809
Ar       1.94807904       9.89560029       2.45744991       0.00097471       0.03177514      -0.02116743
Ar       0.97165805       8.65897359       7.78724720       0.07195489       0.01233804       0.03293227
Ar       2.83082392      10.31940836      16.70906099      -0.00272109       0.08173560      -0.04138693
Ar      17.28968650      14.65286676      15.86312469       0.08921278      -0.02153477       0.06763972
Ar      15.49549669       7.85642894       5.42736705       0.02676385      -0.05716407      -0.02392872
Ar       9.69584015      10.06447257       7.12605628       0.02213999      -0.01777169       0.01083262
Ar      14.25654458       0.38450008      17.16313892      -0.08745993      -0.01079890      -0.14605537
Ar       5.27608476      14.06798345       3.53877311       0.00235062      -0.01740955       0.01952734
Ar       5.25773070       4.85701109       4.62470759       0.01216468       0.03928282      -0.06945609
Ar      15.89961943       4.26339463       3.94386697      -0.05507269      -0.02881555      -0.05002970
Ar      16.59117424      11.19434604       5.10927087       0.02527155      -0.00384761       0.00925899
Ar       6.98097163      13.03823087       6.58140743       0.03277764       0.04387291      -0.00956925
Ar       3.70665776      13.82028963      17.01085351       0.01581987       0.00888279       0.01449216
Ar      10.25275729      12.16795233       9.99107337       0.02717853       0.08808152      -0.00401930
Ar      12.14356016      12.41469293       3.40869630       0.00530253       0.04600780      -0.05682509
Ar       9.68997522      10.21189090      14.48871400      -0.00932673       0.06863418       0.04340150
Ar       7.73859275      17.13887489       7.05071189      -0.05069008      -0.08709865      -0.02758695
Ar       9.16239062       1.65691656      10.48322362      -0.08012936       0.00676020      -0.08995566
Ar      13.05397760      11.34203920       7.96714462      -0.08969869       0.03534756      -0.00183643
Ar      14.86247539      14.20463175       5.63967627      -0.00871390      -0.02074423       0.00915169
Ar      11.32209169       0.75486041       4.30438013      -0.04317271      -0.01125883       0.05768742
Ar       8.66869459      15.06118613      10.23839476      -0.04108124      -0.01488033       0.02080419
Ar       8.99785543      12.57489486       0.48323729      -0.04113144       0.13665595      -0.04333380
Ar      17.20291162       1.53941495      15.17222545       0.08131408      -0.03746516       0.00159857
Ar      15.55371932       9.46080867       2.36990403       0.02163078      -0.00957269      -0.00763662
Ar       1.22933973      16.90573463       4.33294089       0.05467793      -0.00636709      -0.07125127
Ar      15.42932053      14.79322491       2.01765395       0.03855053       0.06703950      -0.10048181
Ar      16.48261847       0.43583779       7.76765546      -0.07866613      -0.00807585       0.07325511
Ar       8.72211408      17.23193925      14.01430386       0.01916207      -0.10604345      -0.04124471
Ar       1.67233632      14.58312743      11.51513319      -0.00773220       0.07158090       0.01983942
Ar      12.25004156       8.27577688      12.55757185       0.00988388       0.02762558      -0.07237005
Ar       5.42378335       9.35219970       8.30804840      -0.01074167      -0.03784505       0.07670346
Ar      15.81027514       8.38232418      13.42969025      -0.07151272      -0.03663362       0.04358634
Ar       3.57983513      12.00883460       6.26294206       0.00902748       0.09648113      -0.01737917
Ar       8.18725205       6.85304747      14.37304041      -0.01258939       0.08927841      -0.07369524
Ar       7.47357266      13.89532578      13.43242718      -0.00997465      -0.01296993      -0.01259349
Ar      13.71500666       5.17259251      15.77079132      -0.02312926       0.02092359      -0.01903366
Ar      13.62388287      10.16951102      15.47072256       0.08847397       0.10869291      -0.01210244
Ar      14.63647424      15.06499396      13.47329540       0.05739631      -0.02510206       0.10009803
Ar      16.65801181       0.04739039      12.05139166       0.02257992      -0.01771973      -0.07292649
Ar       1.95084649      10.83559488      10.75628862       0.05340496       0.01267913       0.07286622
Ar      10.67264055      14.05508396       6.65906597      -0.02510478      -0.04906701      -0.08711641
Ar      13.49989628      11.70043340      12.23043122       0.01241434       0.02040666       0.01543882
Ar       4.57396942       7.44587314       1.48478836      -0.09720684       0.00340693      -0.03565883
Ar      10.49591611      16.00505406       0.27515943       0.06708305       0.08418528      -0.00065075
Ar       1.75335889      13.42449968       2.64040804      -0.05328052       0.03871790      -0.00315551
Ar      11.31821826       0.01414586       7.85318110      -0.00433420      -0.02092022      -0.05004163
Ar       6.96624268      15.36257286      16.72716317       0.03764409       0.04171476      -0.00982407
Ar      11.62169608       4.25276055      10.39229903       0.04533167       0.00456011       0.05666379
Ar       6.45476661      11.68212877      10.87044429      -0.04093630      -0.02071769       0.00597083
Ar      10.83498773      14.01292667      13.88755543       0.02868751       0.03186611       0.09975619
Ar      13.24712229      13.91759424      16.68565345      -0.02152902      -0.09474691       0.10753477
Ar      16.95728519      11.90973997      13.13867754      -0.05628466      -0.06980512      -0.11828985
Ar       0.10378345       7.73965600      16.86763645      -0.08279751       0.00256906      -0.03814851
