108
Lattice="17.35 0.0 0.0 0.0 17.35 0.0 0.0 0.0 17.35" Properties=species:S:1:pos:R:3:momenta:R:3 pbc="T T T"
Ar       0.96094846      10.49646850       3.52419228       0.00836417       0.05692212      -0.01114040
Ar       2.75361838       3.15845463       9.66491050       0.00830173      -0.05101462      -0.06632963
Ar       7.66612720       0.13794558       6.17352665       0.06533574      -0.00747043      -0.03357398
Ar      16.50239692       1.86772126       8.26428529       0.00573340       0.02354883       0.00089603
Ar       9.41386072       3.62150631      10.71894020       0.06518989       0.03341723      -0.00906301
Ar       6.95998280      10.15004784      14.23373348      -0.05813199      -0.00531298      -0.03386567
Ar      14.45801168       3.57498896       0.57868041      -0.01109715      -0.05981861      -0.00840658
Ar      12.86099879       2.80803749       7.45048573       0.07718249       0.07591925       0.03980464
Ar       9.19505896       8.12839700       7.50760352       0.05235264      -0.06243801      -0.02044416
Ar      13.61302978       7.31436409       3.18378785       0.00999349       0.05788755      -0.01257277
Ar      17.20370347      12.77674464      11.00342679      -0.00528676       0.06657174       0.03571517
Ar      16.00687385      16.15376953      11.45791588      -0.10695711       0.06069098      -0.12495271
Ar       5.74874417       9.11766306       6.62181539       0.06476774      -0.08099349      -0.01152182
Ar       2.39636462       7.73487248       5.93703230      -0.04649212       0.03761468      -0.04927980
Ar       5.71901279       7.04222009      12.50975220       0.00610642      -0.04785174      -0.04633664
Ar       9.84758541       5.41488309       1.37491571      -0.04319170      -0.03170066      -0.03218041
Ar       0.64374954      14.34132484       4.08991627      -0.03312191       0.05253124      -0.01540137
Ar       9.78259432       8.42645017       3.97556594      -0.04478291      -0.05560032       0.03280023
Ar       6.22634431       6.13845202       9.06524520      -0.06064273      -0.02134506      -0.08585867
Ar      14.36840188      11.14576078       1.96511455      -0.06727316       0.02576054       0.05774516
Ar      11.11457358       0.79306470       5.25934494      -0.00977066       0.07484100      -0.15231538
Ar       5.27567280      11.63066631       9.03333624      -0.02739231      -0.04596450      -0.03735640
Ar       0.83223730      14.44741952      14.49742114      -0.01608273      -0.12450618      -0.02603138
Ar       7.30835645       5.28355043       4.61144982      -0.02673575       0.04178213      -0.05938953
Ar       9.87892841       3.78795851      15.04076110       0.00889668       0.07395611      -0.00864281
Ar       6.66349266       3.56815387      13.21468124      -0.03910459       0.05934601       0.00351167
Ar       7.49104619       0.48936990       0.32636241       0.00183612      -0.02658420       0.02144899
Ar       8.63531079      12.31460839      16.67096985      -0.03719605      -0.07165083      -0.00482866
Ar      12.13545157      12.78224792       8.45855709       0.02587392      -0.00952030       0.09155789
Ar       9.17402869      14.85101125       9.71937172       0.10598451      -0.02457764       0.02790532
Ar       5.62497551       5.22954475      16.91702330       0.01760850      -0.04535783       0.07033471
Ar      14.41500159      14.55726024      14.66235226       0.04069831       0.00489115      -0.00062859
Ar       9.73757194      11.35602749       6.16705202       0.10413287       0.05683102       0.04188043
Ar      12.30267138       6.42914694       6.46798534      -0.01266159       0.00019885      -0.03162972
Ar      11.63869160       6.29963996      13.22197961      -0.04375882       0.04389309       0.07165729
Ar       8.79381170       7.40652741      14.94672557      -0.01750662      -0.09026257      -0.01413914
Ar       0.07213937       7.29208559       2.23222063       0.05094959       0.01795814       0.06751583
Ar      12.32257390       2.38553213      12.65163071      -0.03158943       0.01423271      -0.05926309
Ar      10.24791045       0.61025098       8.89624360       0.00769789       0.02636345       0.01092912
Ar       1.82067087      17.27310067      11.43941669       0.01224796      -0.08065244       0.01260881
Ar      15.25999067       3.95975648       4.17112568       0.09490140       0.04183649      -0.02149209
Ar       9.15857447      15.66905152       3.02320046       0.06426581       0.05529122       0.02637922
Ar       3.41357038      13.65327494      12.35284690       0.11200965      -0.04344791      -0.07277289
Ar       4.42603572       7.04629438       3.12977634      -0.01767746      -0.00991732       0.10785522
Ar      16.36032235       8.32763599       5.32770973       0.04190168      -0.05274449       0.05466039
Ar      16.83049337      16.51760261       0.81476573      -0.03396013       0.02908403       0.03920440
Ar       3.22947889       9.61658348      12.43186311      -0.08021718       0.01853836       0.03049045
Ar       2.48700399       5.11857677       0.94738253      -0.02579632      -0.02261742       0.04238759
Ar       3.72738133      16.46789286      14.54033752       0.09853112      -0.07201909      -0.00859473
Ar       6.03436860       2.50072706       8.74157739      -0.13474167       0.01280059       0.04759251
Ar      15.30692494       7.67643736       9.01174209       0.00848091       0.06708137      -0.01371383
Ar       2.74765354       2.84259234      13.48022202      -0.03386253      -0.05799130      -0.00512886
Ar       4.08026936       4.30665303       6.32681315      -0.10467877       0.06040425       0.08307203
Ar      11.81441761       9.37598253       9.62203291       0.03117193       0.03669026      -0.08972262
Ar       3.96496647      12.17070362       1.97959735       0.02114245       0.01651716       0.04087417
Ar       2.89305175       6.97759970       9.51215395       0.03742590      -0.08655131       0.02960883
Ar       2.88750272       9.55422570      17.34042852       0.10532615       0.09049402      -0.00859403
Ar      17.14257963       0.80722866      14.89964077      -0.04717708      -0.04125832      -0.07367801
Ar       0.15669933       4.56084000      15.88874636      -0.06959504      -0.09981248       0.04195295
Ar      12.91942700       9.79175149       6.11833227       0.08844205       0.05343480       0.00108900
Ar      13.55540261      12.03169051      11.63600587       0.10040025       0.09666303      -0.02392633
Ar       3.31186634       0.71073800       6.74327902      -0.08051734       0.02251529       0.07180943
Ar       0.77643649       1.27452271       3.10616374       0.06345046      -0.05720297      -0.02090012
Ar      14.64599896       0.26420348       3.91451847       0.05206433       0.06683809      -0.03115932
Ar       0.98106428       5.49401206      12.13677779       0.01236701      -0.03045527       0.05546273
Ar      10.73121935      15.00594851       6.00295269      -0.02829935      -0.00110503      -0.05268466
Ar       4.87033181      16.41464708       3.76884307      -0.04258025       0.07525342      -0.04771810
Ar       8.51806359       2.35710616       3.10431933       0.00088643      -0.05415207      -0.04005499
Ar       6.50515207      14.24958815       1.41570016      -0.13089527       0.02957428      -0.06166896
Ar      16.09775919      11.29484846      14.77419292      -0.01546240      -0.08845757       0.08275794
Ar       4.78332452       2.73959685       3.06078975      -0.01573565      -0.03616638      -0.03208176
Ar       9.38921614       3.28321502       6.99707997       0.03676492      -0.05340640       0.04511277
Ar      10.88328860      10.26002406      13.36641143      -0.00078219       0.05309834      -0.00407838
Ar      14.26035685      16.53928321       7.73172908      -0.01471187      -0.10647535      -0.01576434
Ar      11.86707427       0.96723591       1.37818117       0.00579966      -0.02426629       0.13007061
Ar      12.18347271      15.73205446      11.43316714      -0.08750488       0.07843882      -0.01862773
Ar       6.83166763      13.32650421       4.93194685       0.04423326       0.09059469      -0.00551939
Ar       4.76070623      12.61070727      15.55214722      -0.03011525      -0.00540198       0.04250396
Ar       3.07963261      15.69903643       0.57723445      -0.06380060       0.07782593      -0.01575683
Ar      13.10728744      14.39877666       2.98576242      -0.08462060       0.04880599      -0.05629166
Ar       0.72107689      12.77677971       0.33126896      -0.01699838       0.03204491       0.06625066
Ar       0.29590848       5.02717223       7.40277365       0.05779159      -0.03920258       0.02997213
Ar       8.74980535      10.87029432      10.01314661       0.01613744      -0.00101141       0.07126361
Ar      17.00216380       9.34490461      11.99408453       0.08144570      -0.00343791       0.05599158
Ar      10.16475369      12.39394025       2.64621641      -0.12920517      -0.07652861       0.05162682
Ar       6.93254180      15.24626791      14.44971797      -0.03040144       0.08677913       0.03329325
Ar      15.22224206       6.55507844      13.46521525      -0.05194360       0.00521203      -0.02898673
Ar       2.87024813      12.90963433       6.22708060       0.08789936      -0.00667529      -0.05243332
Ar       7.37274764       8.12347200       0.75509804       0.03733702      -0.05636934      -0.02803911
Ar       5.71167667      17.16045135      11.14770551      -0.02410382      -0.03259700       0.07319103
Ar      12.72685976       5.32061198      10.14931001       0.00540508       0.02495849      -0.05627557
Ar      12.18059118      12.37918000      16.85148085      -0.06001181       0.00445669       0.01137915
Ar       4.05225285      15.18262396       8.95101984       0.00777105      -0.02103690      -0.05892153
Ar       0.30126986      15.21006570       7.76187529       0.11915174       0.08300090       0.05218835
Ar      13.62128944       0.50088956      15.35484087       0.05068231      -0.11265424       0.01958115
Ar      11.55180966       3.86048077       3.71108417       0.04479259       0.03705723       0.03123643
Ar       0.48022052      10.28883400       8.17381939      -0.02692874      -0.09886505       0.02432985
Ar       2.96168350       7.01321461      15.04170763       0.03578292       0.07618074       0.04048651
Ar       6.81444469      10.18747616       3.64041825       0.00475455      -0.06178066       0.04317314
Ar       4.18091367       2.03666801      17.08584016       0.01969896       0.01487471       0.07579949
Ar      15.77159666       2.58890371      11.77131864      -0.04362632      -0.04661272      -0.08546965
Ar      10.14414566      15.68379134      16.62094566      -0.10600202      -0.01768797      -0.06728089
Ar       8.95311388       7.56893256      11.08655267       0.01237521      -0.00643415      -0.03088432
Ar       9.63740647      17.29566952      13.26777688       0.04433855       0.04555036      -0.01797281
Ar      10.38132388      13.53284494      13.62107884      -0.06274976       0.01540218      -0.02668241
Ar      15.91264370      12.11354285       6.03726714       0.09446761       0.05076471       0.01644025
Ar      14.27072420       7.21448182      16.81850200      -0.01821493      -0.04836257      -0.06968033
Ar      10.59377439       8.41794953      -0.00829109      -0.02695722       0.01210740      -0.05769025
