108
Lattice="17.35 0.0 0.0 0.0 17.35 0.0 0.0 0.0 17.35" Properties=species:S:1:pos:R:3:momenta:R:3 pbc="T T T"
Ar       1.94178068      17.15777786       7.92317178      -0.00011917      -0.00033576      -0.05058353
Ar       6.91481033       8.27839418       5.92658477       0.01156216      -0.11646604      -0.01976641
Ar       8.91849894      10.92618246       2.41073299      -0.02348622      -0.01598848       0.04011269
Ar      14.53862027       9.03158130      10.88712793       0.07264271      -0.00402174      -0.13644101
Ar       4.81083089       5.46323988      11.79154540      -0.12372740      -0.00648888       0.01882265
Ar       4.11095110       3.45308524       8.11961617       0.02778161      -0.09164291       0.09281358
Ar      16.23297296       5.20658819      16.41474586      -0.03539348      -0.01993982       0.05848562
Ar      15.00954319       4.88102025      10.69899253       0.01853924       0.07390019      -0.04159054
Ar       7.97921147       4.05355342       4.95669745      -0.06259678      -0.00167981      -0.07086579
Ar      14.39875517       1.78303552      12.25776447      -0.07118858      -0.04964087      -0.05859989
Ar      13.49212107      12.88739134      10.71924596      -0.00169941      -0.05366698       0.03087515
Ar      15.43231944       2.01978768       2.51551782       0.06512878       0.08303600       0.06782519
Ar      11.94764777       4.49750088       4.09271341       0.02591411      -0.01235629      -0.01453960
Ar       4.60997545       4.63547519       5.02476935       0.06930814       0.02578944      -0.00131878
Ar       6.73408141       5.06687974       2.23789384      -0.01568066      -0.05107051      -0.03102306
Ar       3.63531956       1.66451627       2.90544720      -0.02758639       0.00490096       0.02026874
Ar       1.41634767      16.03650966       4.42095916      -0.02117985       0.06603088      -0.01754878
Ar       9.85866200       3.21838797       1.44531917      -0.00554567      -0.01465053      -0.03467860
Ar       7.09781620       5.29477388       8.46653348       0.14322366       0.01893351       0.01582171
Ar       2.79132750       6.97527178       3.27478158       0.08445720      -0.05334176      -0.08346537
Ar      14.67021801       7.45797251       7.21994542      -0.02306603       0.02257373       0.04154097
Ar       1.25153365       2.56743435       5.40305893      -0.05849545      -0.04823178      -0.06477787
Ar       4.16835266       0.46355982      14.50073123      -0.04617125       0.00856343       0.02710593
Ar       3.45459519       9.72649406       5.54291986       0.05582030      -0.06970242      -0.00090502
Ar      11.58590810      13.56647715       3.33821516       0.01601655       0.02274371       0.02479017
Ar       6.07145512       2.42119573       0.03687884      -0.05035262      -0.07916710      -0.03386962
Ar       9.90723551       4.79251952      14.78998929      -0.01519453      -0.02267432       0.02975069
Ar       9.95611611       3.41161313      11.52096932       0.01191840      -0.08442167      -0.06360001
Ar      10.30777050      15.75168325      10.25177521       0.05903842       0.04506101       0.00317967
Ar       1.68332894      14.66799110      10.91196964       0.02852959      -0.03089951      -0.04076998
Ar       9.82713465       7.41080456       1.61186278      -0.02507420       0.09431257      -0.00256071
Ar      14.77110684       3.65065352       6.17795971      -0.02346475      -0.04026525       0.02196340
Ar      10.72136426       7.31686535       6.30979723      -0.07610748       0.01160475      -0.01263241
Ar      12.95057551       5.26782868       0.29015791      -0.00213976       0.08513101      -0.03320499
Ar       1.08275294       0.63176137       0.62693106      -0.03895698      -0.01878149      -0.00313421
Ar       1.87078071       7.93431802      12.22024613       0.09300523       0.02984595       0.02748344
Ar       3.31363728       4.52511283       0.84358630       0.01656355      -0.01188295       0.04333250
Ar       2.75036741       3.89389664      14.16201711      -0.01181117       0.01515208       0.03772634
Ar       6.32855508       1.06251014       6.85873951       0.00265696      -0.01102637       0.06261035
Ar       4.89922588       1.06976450      10.54175282      -0.01480177       0.03980638       0.00744116
Ar       0.48441078       6.04524259       6.30904827       0.02149121      -0.05570509       0.00550075
Ar      12.02378017      10.09871675       8.78547697      -0.06114043       0.03779709      -0.00868745
Ar      16.74169351       2.01013647       8.91905114      -0.00622073       0.00461421      -0.01117863
Ar       5.23669611      12.01551309      17.29847642      -0.01825073      -0.00524483       0.00649296
Ar       7.88011442       7.16632526      12.72249419      -0.03811450      -0.05951894      -0.04152780
Ar       1.68890366       7.26330940      16.33206860      -0.00963372      -0.00009456       0.04368869
Ar       5.44153364       8.88010207      10.78657210      -0.00566520       0.01810637       0.00397986
Ar       7.20657297       6.39932909      16.33675248       0.09766023      -0.03391805       0.06744026
Ar       1.55286157      11.05755171      15.47996813       0.10146084       0.08543344      -0.01699834
Ar       0.66071097       0.68479211      11.58667583      -0.09950853       0.03662881       0.02088416
Ar      11.57585392      17.13987911      14.44867809      -0.15855688       0.00891945      -0.01736391
Ar       1.20965968       4.90477069      11.10524302      -0.06587920       0.05935127      -0.05776799
Ar      12.65681535       0.42761501       3.96076456       0.01348817      -0.00843607       0.03732396
Ar       8.46677178       9.14799916       8.73369990       0.07728305      -0.00136732      -0.00338847
Ar      17.18316557       9.60390699       4.58511130       0.00654397       0.00315619       0.11082530
Ar       0.61065503       9.60606573       8.98126341       0.03626664       0.07279165       0.01856795
Ar       2.60962606      10.11976614       2.09511964      -0.08470477       0.00451339      -0.08086757
Ar       0.59989193      15.58083198      14.41574444      -0.01840939       0.10047904       0.00398915
Ar      14.36780010      11.16116113       6.26956874       0.06692726       0.00452935      -0.03339256
Ar       6.04804606      11.56964734       7.22875109       0.01050964       0.02190900       0.04760161
Ar      14.99841383      16.13808866       0.46753069       0.00799216      -0.04433687       0.02745019
Ar       7.94938894      14.45081810       2.69086670      -0.03800827      -0.12963325       0.00776458
Ar       7.35038618       1.08566377       2.89423918       0.07897910       0.06502893       0.11391834
Ar      15.61968022       6.01978266       3.65592957       0.11991849       0.16706195      -0.05802565
Ar       1.74690413      12.79223822       5.25635153      -0.04207914      -0.06344146      -0.05227143
Ar       8.64051177      13.99331790       7.00863081      -0.00943188      -0.12562927      -0.04924834
Ar       4.88761637      16.31785800       0.06769730       0.01967017      -0.00043642      -0.01934253
Ar       9.73411763      12.13293595      10.29166927       0.00050432       0.05699945      -0.05081520
Ar      14.07119212      12.30127430       0.77130060      -0.01336587       0.08144145       0.09933179
Ar       8.46047994       9.92808983      15.97458952       0.05024602      -0.07904385      -0.07669619
Ar       9.59829757      17.27675488       5.94831129       0.07532238       0.00500043       0.06293497
Ar       8.95345827       1.64775097       8.82670523       0.00306529       0.02370288      -0.01374659
Ar       9.91414407      10.62894573       6.13479500       0.04242334      -0.00296161       0.03709021
Ar      16.80358002      13.34696833       7.72038876      -0.06037301       0.02820856      -0.06762502
Ar      14.70862543      14.56120551       3.75716044      -0.02806137       0.09753778      -0.06591531
Ar       6.65817176      13.95586708       9.94339162      -0.05182985       0.04247198      -0.01752496
Ar      10.78744259      12.34053120      16.86792373       0.06221720       0.01006104      -0.03072273
Ar      16.08136104       1.86650981      15.46156876      -0.03984079      -0.02739456      -0.00171439
Ar      12.78747288       9.51423326       3.19099400       0.08203355      -0.02714350       0.03857872
Ar       4.91097571      15.25074647       6.33391163      -0.01844180      -0.01344849       0.02330387
Ar       0.36836500      14.08341266       0.52182808      -0.02187861       0.08961606       0.03770202
Ar      15.46910693       0.26659434       6.11631019      -0.04373360       0.00239682      -0.05001861
Ar       8.59965697       1.01534884      15.45932269      -0.02046724       0.01294560       0.09422450
Ar      14.57263652      15.39809441      14.23175635       0.01889070       0.08083805      -0.04884681
Ar      11.21733459       6.94119663      11.00036886       0.05830562       0.01354830       0.05450677
Ar       3.94213238       7.13621954       8.22391303       0.07377681      -0.16304826       0.01778271
Ar      16.21893805       8.69908809      14.05522732      -0.03307803       0.04534001       0.05107126
Ar       2.95949929      12.57090862       8.45675863      -0.07991086      -0.02174273      -0.02023947
Ar       4.91045004       8.82567474      15.37259878      -0.02418946      -0.02973306      -0.00811267
Ar       5.37292305      14.25834606      13.95059491      -0.02835561       0.06679488       0.01703738
Ar      13.52627801       5.35733386      14.18222095      -0.03201920       0.00348927      -0.03444200
Ar      12.60944147       8.76625309      16.29426225      -0.00076421       0.04063820       0.01468608
Ar      11.11901965      13.69877444      13.66830642       0.01786817       0.04417387      -0.01974176
Ar      15.10969595      15.98130110      10.28606840      -0.07068763      -0.10196704       0.05084618
Ar       3.33808731      11.63144167      11.79860443       0.09681065       0.01517473       0.07933130
Ar      12.47019145      14.51089560       6.52735320       0.01648831      -0.08590899      -0.07756837
Ar      10.99274912      10.17471181      13.10847790       0.03043536      -0.07575303      -0.02467492
Ar       6.03954226       8.54675715       1.87447643      -0.10596914       0.08279425      -0.01476575
Ar      10.34572429      16.60623864       0.83100444       0.03112728       0.05147818       0.03608389
Ar       4.32401281      13.65369109       2.74910574      -0.05555363      -0.14433224       0.00454085
Ar      12.74370247       1.19627763       9.03049041      -0.05935344      -0.00534273      -0.01499612
Ar       8.25383739      14.64409626      16.07592441      -0.00501321      -0.09516968      -0.04787441
Ar      11.33957698       4.61615737       8.39846082       0.02231499      -0.07205887       0.00899922
Ar       7.42223494      11.59795856      12.82354955       0.05843594       0.06024424      -0.08298539
Ar       7.72968284       0.18012909      12.41298001       0.04247934       0.04109923       0.04537319
Ar      14.10433414      11.57615098      14.52384049      -0.01435346      -0.00414071       0.03568926
Ar      16.94601465      12.26650844      12.39744088      -0.02041768       0.04036975      -0.00958329
Ar      16.32522738       8.63333309       1.36669020       0.01405789       0.01122396       0.04805495
