108
Lattice="17.35 0.0 0.0 0.0 17.35 0.0 0.0 0.0 17.35" Properties=species:S:1:pos:R:3:momenta:R:3 pbc="T T T"
Ar       0.99944805      10.74778888       2.35137481      -0.00042512      -0.05801813       0.01569234
Ar       1.54345070       0.83750127      10.00043249      -0.00883462      -0.00994726       0.06714498
Ar       4.44269775      15.77031645       9.02361835       0.00145346      -0.01020991       0.02355127
Ar      13.31913814      16.74796780       4.72784387      -0.03310225      -0.00362539       0.10398902
Ar       6.30573853       3.05437171      13.34960460      -0.10664992       0.01538016      -0.06528705
Ar      10.93858101       7.75446957      13.06927157      -0.03178998      -0.03221658      -0.01340566
Ar      13.11787134       3.45072880       0.64739786       0.09111382       0.08925220       0.02027498
Ar      13.46132796       1.86696218       7.99180546       0.04110467      -0.00115054       0.05731355
Ar       9.86724256       7.55787403       9.22793587      -0.04386647       0.01458538       0.04922784
Ar      15.49087933       4.87395471       3.93717366      -0.03958191      -0.03032909      -0.00759655
Ar       0.44209621      13.18164819       8.60411576       0.00979735       0.00739725       0.00785995
Ar      16.04037400      16.63360263       8.01724834       0.04452596      -0.03676239       0.07556963
Ar       6.11239775       8.51653479       7.33485990      -0.05710148       0.00248366       0.07566464
Ar       2.23966508      10.18752841       6.99827419      -0.10557141       0.00919560      -0.06067740
Ar       3.75003304       8.22175036      10.24294136       0.05323162       0.06819276      -0.03491869
Ar       9.06652201       6.63776240       1.71393054      -0.09544134      -0.06412977      -0.03780813
Ar      10.02267618       0.52894059       2.80803545       0.05031035       0.00879466       0.00288130
Ar      15.38475882      12.74510621       2.06212725      -0.05117234      -0.01548675      -0.05944407
Ar       6.35824188       7.34625554       3.98632516       0.04768682       0.01436256       0.08328225
Ar      12.29431986      14.67883561       1.46789207      -0.01242091       0.01169559      -0.03362481
Ar       9.87072970       0.52087223       6.50299041      -0.01371073       0.04345331      -0.01743946
Ar       7.23288969       9.86975539      10.18673409       0.00349136      -0.01365345      -0.08646423
Ar       2.41779955       9.89343529      13.97498198       0.00301019      -0.02445971      -0.01159449
Ar       9.37461269       6.89754666       5.62812912      -0.01033847       0.07675040       0.04382107
Ar       9.68576912       3.21165323      16.61414060       0.04927633      -0.04287430      -0.09150890
Ar       6.11336103       3.49800462      16.77647522      -0.01087492       0.03189856       0.01845008
Ar       6.87963716       0.26863757       1.08671988       0.04563209       0.07454620       0.15186585
Ar      11.79092812       8.32627564      17.05094080       0.02854291       0.00858876       0.00826887
Ar      12.56868982      15.42835805       8.60246786       0.01381771       0.03566750       0.06488480
Ar      10.57440231      12.31146032       9.34464335       0.01722991       0.08007067      -0.04326677
Ar       3.53122378       4.42232975      10.78044052       0.07571104      -0.04742768       0.00867534
Ar      14.49524177      14.74663555      14.51758644       0.01335214       0.06838858      -0.02206124
Ar       9.20855673      10.78735832       6.44173685       0.02200830       0.08550389       0.07826015
Ar      11.60534027       5.08442771      10.99009436       0.05630361       0.07593961       0.00279713
Ar       1.36148223       8.00382700      16.73270301      -0.06357248      -0.07357252      -0.04492792
Ar       8.24325470       6.61043338      15.49091769      -0.00779540      -0.03842439      -0.02981834
Ar       0.70265483       6.62812573      13.35834674       0.00386562       0.01808416       0.00841528
Ar       9.85169853       1.43114348      13.64458884       0.01199817      -0.05226157       0.00720511
Ar      10.32381470       0.99997979      10.18217256       0.14502022      -0.06626796       0.02448430
Ar       3.57946552      16.03024792      12.52480476      -0.07020728      -0.01083847      -0.03181650
Ar       2.50738708       4.51711947       1.14324941      -0.05372852      -0.09186872      -0.05202793
Ar       3.30229168       0.59649721      17.08353486       0.01813465      -0.06517482      -0.08446064
Ar       6.96927724      13.16824324      11.10697650      -0.07464842       0.02919359       0.12612987
Ar       1.04563754       7.04219887       3.87010315       0.04032679       0.00331307      -0.14054845
Ar       0.03524695       9.75936926      10.31637619       0.08457949       0.00522845       0.06233197
Ar      15.77812454      16.28398951       1.49070372      -0.05361952      -0.07441675       0.03958817
Ar       6.00270657      10.53681157      13.51069148      -0.03434284      -0.05709916       0.10858696
Ar       4.53936906       7.17602121      14.18030530      -0.07883470      -0.01697545      -0.00643271
Ar       3.87579468      14.07428777      15.45332119      -0.02052997       0.03916586      -0.04396288
Ar       6.68103078       2.33546085       9.38285611      -0.06572885       0.01183445      -0.04831326
Ar       3.26849470      11.55201913      10.35557355      -0.05342242      -0.00270614       0.17699830
Ar       2.81197320       2.12381587      13.49548996      -0.02440053      -0.02337481      -0.05750220
Ar       5.20389455       7.63484613       0.49345925      -0.00744712      -0.05449000      -0.01263382
Ar      14.05734119       7.99762027      10.07585717       0.16194874      -0.02845225      -0.00357238
Ar       3.75795140      16.61172417       3.21943177       0.07728926      -0.01124006      -0.07817134
Ar       3.14908172       6.68653959       6.90515396       0.05002076       0.01219104       0.08634091
Ar       3.96281541      10.82113627      17.25795777       0.00374223      -0.01654451      -0.06786164
Ar      17.16620841      12.98346219      12.30317927       0.08189247      -0.01039696      -0.07248417
Ar      16.35185100       4.75653099      16.17141103      -0.01838369      -0.09446887       0.04768062
Ar      12.61784761       8.97463204       6.48227809      -0.01755694       0.06601222      -0.00437890
Ar      14.29887858      12.00419389       8.46806399      -0.00114019      -0.16267530      -0.09692113
Ar      16.89062632       3.40466833       7.03493566      -0.08684288       0.00924245       0.10833496
Ar       0.92057904       3.08392359       3.77751091       0.00647455      -0.02971198      -0.02269020
Ar      12.04399640       2.88676462       4.70290523       0.01512907       0.08741862       0.05581783
Ar       0.35577892       6.14548078       9.82733446      -0.07251720       0.00687367       0.04107881
Ar       8.28659444      15.46504405       8.33128403       0.00070231      -0.04642521       0.06968938
Ar       3.18454189       3.10194043       7.01556532      -0.01930697       0.05166409       0.04598230
Ar       5.97155679       0.52462327       6.15591768      -0.06245340      -0.00085361       0.05814121
Ar       5.28508617      13.53724473       1.88070419      -0.01056836      -0.00109133       0.01099100
Ar      15.64192511      10.09992723      16.69999425       0.09888219      -0.00230825      -0.06151451
Ar       5.15928896       2.89027642       3.48882838      -0.04057236      -0.01922237       0.06863748
Ar      10.03714947       3.52124246       7.87288211      -0.02039844      -0.02549793       0.01731587
Ar      14.63898080      10.43923782      13.17154581       0.00765527      -0.03128003      -0.04531197
Ar      12.05469215      13.53793743       5.27295641       0.04085209       0.00491178      -0.07696952
Ar       8.38495054       3.09959357       4.43891759       0.03302121       0.02322815      -0.03238792
Ar      13.06429657       0.86351276      12.38699947       0.08145603      -0.04957112       0.08853407
Ar       8.75794600      13.67489031       0.69345839      -0.04365641      -0.09512737      -0.16061594
Ar       9.97731145      11.08553184      12.55985723       0.02702096      -0.00213810      -0.09333104
Ar       1.56557368      14.09775036       1.57896634       0.00835850       0.05331855      -0.01059969
Ar       7.60582549      14.80121325       4.61425223       0.08294384      -0.00907146      -0.02115753
Ar       0.59916418      12.43436995      15.87748910      -0.00742794       0.02223937      -0.01182085
Ar      13.19779933       5.29310038       7.18694049      -0.06566399       0.03757105      -0.01540245
Ar       6.90288344       6.12083959      10.38726319      -0.11428397       0.02404213      -0.01705804
Ar      14.67698856       7.29862014      14.58526344       0.03063098      -0.01869474       0.11075626
Ar      12.35760151      10.94974038       3.03813154       0.13425474      -0.01700006       0.00428233
Ar       7.75589166      13.43770697      14.67560396      -0.06271019       0.07566740      -0.04082484
Ar      15.97300632       4.27475110      12.10062809       0.04387954       0.05078529      -0.08906103
Ar      16.28998073      14.57265613       4.95612205       0.02581253       0.02460691      -0.02358391
Ar       8.65585694      10.21368645       2.91244227       0.04391926      -0.00585131       0.01718581
Ar       6.56219809      17.27822185      14.92379155      -0.05531520       0.08154749       0.07256677
Ar       6.28602490       5.00208199       6.81829280       0.02992884       0.02398594      -0.08881748
Ar      11.87475966      12.18089618      16.30063898      -0.01977940      -0.02178557      -0.05060366
Ar       5.04682018      10.27934610       3.92745045       0.04865066      -0.02982803       0.00623083
Ar       2.34241197      16.66759482       6.42264235      -0.00249227      -0.00833776       0.06831896
Ar      12.86308924       1.01373853      15.78542669       0.02727810       0.01848166      -0.05584840
Ar      16.45817196       7.04040317       6.84489603       0.00100992       0.05695763       0.01276667
Ar       6.01721858      12.34621261       7.45504040      -0.05899375       0.02705166      -0.04495865
Ar       8.62921888       9.74002236      16.06990235      -0.00516211      -0.04205647      -0.09405271
Ar       2.56084826      13.01728390       4.58838805       0.03011084       0.02703874       0.08477804
Ar       0.05256882       1.95236980       0.54730749       0.00893880      -0.00715017       0.13019330
Ar      16.74288786       0.35775075      14.28429795       0.03453027      -0.04099364       0.05171482
Ar       9.78586416      16.21490426      16.06476771       0.02931689       0.06347927      -0.04662137
Ar      12.01567338       4.37930959      14.42303721       0.04776778      -0.00904769       0.03486953
Ar       7.34547784      16.80792284      11.30753598      -0.12401503       0.06201418      -0.10072725
Ar      10.99234193      14.52755289      12.34547876      -0.01564040       0.08896922      -0.08380074
Ar      16.56271517      11.09542081       5.26454000      -0.01439853      -0.04284965       0.02914959
Ar      14.72119322       8.69919960       2.84815422      -0.12966437       0.00237766      -0.10359419
Ar      12.28421380       5.98311161       2.87599730       0.01316074      -0.03320953       0.01771318
