108
Lattice="17.35 0.0 0.0 0.0 17.35 0.0 0.0 0.0 17.35" Properties=species:S:1:pos:R:3:momenta:R:3 pbc="T T T"
Ar      17.08675509      10.52740839       3.90609051      -0.03863720      -0.13253409      -0.04546121
Ar       3.59307510       3.06225246      10.44110472       0.04536818      -0.01012112       0.04170476
Ar       8.55114941      17.24290810       6.71531963       0.01543601      -0.05416273      -0.12934296
Ar       0.94789725       2.54616335       7.10199587       0.05610310       0.09562001      -0.01464616
Ar       8.39947361       3.99948532      12.70612850      -0.03375105      -0.07987217       0.07629231
Ar       8.40441290      11.27632040      14.24274633       0.10144449       0.09824777      -0.04886687
Ar      16.60242333       2.08524010       0.56047860       0.06618178       0.00705326      -0.01370272
Ar      13.91030032       2.63852372       7.82742865       0.04380432      -0.04769448       0.02960664
Ar       9.57139284       8.25275592       7.62997342      -0.06718629       0.07788466       0.03290383
Ar      14.18290896       7.23423714       3.74689525      -0.03184242      -0.04517204       0.09598122
Ar       0.06193418      12.81482017      10.86298319       0.03098859      -0.03613734      -0.04529895
Ar      15.97139347      16.15124775       8.20387798      -0.02450876       0.08353066      -0.02878054
Ar       5.39643273       8.26283297       6.33357259       0.05776757      -0.00095615       0.01285622
Ar       1.49241417       8.08423502       5.46218844       0.03542746      -0.03423048      -0.00029974
Ar       5.62555688       6.59937437      12.06731083       0.02337597       0.08960976      -0.03373325
Ar      10.82184883       5.26847161       1.05849007      -0.00075727      -0.04085037       0.03660368
Ar      16.79003094      14.10299738       4.03180124      -0.12181779       0.05039837      -0.04546958
Ar      11.49287836       8.87415152       4.54994682       0.01406810      -0.00036883      -0.05544775
Ar       7.42715559       6.21516417       8.91597816      -0.00720222      -0.03369499       0.02820232
Ar      13.20521379      11.64453856       2.37252022      -0.03615496       0.02607721       0.02923306
Ar      11.50268230       0.91758503       5.12398439      -0.03678134      -0.02287237       0.06485328
Ar       6.36748425       9.67856680       9.73766367       0.05900727       0.01954825      -0.00783478
Ar       0.28343511      11.82995938      14.43782187       0.06737603       0.01317088      -0.03029460
Ar       8.24064300       6.31656348       3.26259753      -0.04518247      -0.00876485      -0.02524834
Ar      10.55537684       2.54640247      15.80820815       0.05145611       0.10149765       0.00965902
Ar       4.91549587       4.08126644      14.71924908      -0.00875624      -0.01725594       0.03037527
Ar       7.11223269       1.25879425      16.32206677      -0.02738402       0.03545845       0.00769201
Ar       7.27729958      12.59166600      17.32510993      -0.06847671      -0.10183421       0.02975748
Ar      13.27358632      14.12841314       9.47013520       0.04457398       0.05913208      -0.00367194
Ar       8.99748373      14.55489660      10.29793609      -0.06155576       0.04503245       0.00394279
Ar       6.79600588       4.92725677       0.49665719       0.00989585       0.02028911      -0.00247470
Ar      14.46543530      14.11557540      15.42626572      -0.05963407       0.02852670       0.04505769
Ar       7.14383115      11.44230987       6.34850146      -0.09355793       0.07519202       0.04994017
Ar      13.18771333       6.70115385       7.43209059       0.08439981      -0.01515569       0.09361901
Ar      11.17119780       5.81449887      14.36677629       0.02648162      -0.04604453       0.04752153
Ar       7.35548959       7.00744236      15.01693032       0.07589055      -0.00757802      -0.02642060
Ar      17.12615738       7.67012467       1.27077600      -0.00845901      -0.06879107      -0.03118691
Ar      12.18465240       2.58455531      11.90662488      -0.10837706      -0.00733100      -0.00917573
Ar      11.78275997       0.30117228       9.01118524      -0.01893729      -0.03241482      -0.09426681
Ar       2.57414876      16.43391358      10.45714921       0.05860313      -0.02006603       0.02734721
Ar       0.70358274       4.74015117       3.10179366       0.10977585      -0.04502276      -0.13564188
Ar       8.04448268      16.74968987       2.57196776      -0.06136071      -0.02442456      -0.06496579
Ar       5.90201650      14.11401379      11.90032108       0.02793744      -0.03588865      -0.01298047
Ar       3.39067339       6.17979302       1.49862752       0.03492327       0.02947783       0.05401962
Ar      15.36316798       9.36759053       6.63355789      -0.10089198       0.05652460      -0.00709022
Ar      14.82188472      15.84415106       1.74872250       0.04764029      -0.05033234      -0.03127780
Ar       2.43791048       9.23493568      12.46114513       0.03872224       0.11875436      -0.11948992
Ar       1.33159582       5.48774650      16.28095823       0.00075617       0.00248396      -0.06955389
Ar       2.78441370      14.92087395      13.58736151      -0.06102931       0.01347828      -0.01087218
Ar       8.02328593       1.82654097       9.63176155       0.00321148       0.08483022       0.00990816
Ar      16.61176698       9.45389702      10.83884614       0.09770931      -0.11241702       0.02354719
Ar       1.61102773       1.89682087      14.46088782       0.04635717       0.05981189       0.16887486
Ar       3.58380545       5.25347986       5.92535051      -0.03387233      -0.01464173       0.04723051
Ar      12.86853471       9.28008944       9.62356171       0.13255106       0.01648884       0.02388232
Ar       2.95226682      13.46977958       2.15367652       0.00000178       0.04242195       0.03079293
Ar       3.26593827       6.88961143       9.14342542       0.11281720      -0.03166889      -0.06720286
Ar       2.54870689       9.94103898      17.20246280      -0.02261897       0.04960319      -0.08737415
Ar      16.63829175      15.69042233      12.67595684      -0.11946472      -0.00582978      -0.04988874
Ar      15.86664533       3.81301579      14.34048616      -0.04970604       0.07300958       0.01173226
Ar      12.51177415      11.92391842       6.20129435      -0.08961293       0.02124968       0.07792736
Ar      14.27887695      11.40268320      12.71041946      -0.02357140      -0.03834749       0.07671451
Ar       5.55655016       2.32001354       7.16831106      -0.07426582      -0.01594986       0.02881126
Ar       1.05586993       0.41354135       3.63863439      -0.00058011      -0.00813152       0.05417540
Ar      15.03669361       2.81111851       4.09473165      -0.05793505      -0.05003887       0.06676323
Ar       1.40036250       5.58792216      12.31652559      -0.04604274      -0.07946713       0.03758774
Ar       9.27564549      13.79482172       5.53449472      -0.00427913       0.00661356       0.01616676
Ar       4.41406129      16.49312300       4.13718243      -0.01231187      -0.00287617      -0.02788515
Ar       7.90122146       2.48238113       3.73562809      -0.02792707       0.03014226       0.02133577
Ar       4.62433803      15.19714469      17.06719627      -0.08760884      -0.02225177      -0.05110481
Ar      14.42679131      10.10336366      16.26253208       0.13227969       0.07858731      -0.04952385
Ar       4.53723631       3.08680893       3.34806755      -0.06281595       0.03219838      -0.03942213
Ar       9.34175485       3.55204627       6.76824276       0.13471386       0.00903208      -0.00519337
Ar      11.67787096       9.66829531      14.32704681       0.02511698      -0.08009351      -0.02938489
Ar      13.63954634      15.12356146       5.46562892       0.03747196      -0.01446817      -0.03119303
Ar      13.02561256       2.01193321       1.39309269      -0.09446314       0.04782315       0.00957185
Ar      12.71094355      16.30797684      12.36748271      -0.05592310      -0.04272834       0.07508890
Ar       6.09971228      13.51891785       3.27949733      -0.10546541      -0.00583425       0.09044290
Ar       4.41278338      11.61104396      14.86416783      -0.05953469      -0.07168302      -0.04269846
Ar       0.44119146      16.06593100      16.52701744       0.08714801      -0.14034711       0.04407343
Ar      11.52647607      15.26385325       2.75841534       0.04284171      -0.01409732       0.03808650
Ar      17.08303363      12.08376376       0.54645696      -0.05341575      -0.01673473       0.00914749
Ar      16.78057534       6.36620028       8.07304740      -0.09805343      -0.04010582       0.03665686
Ar       9.82306733      11.34702638       9.25122737       0.12706368      -0.02647888       0.02505887
Ar      16.82569670       7.92089633      14.19390406      -0.10267156      -0.07600669       0.00517439
Ar       9.33218906      11.23266342       2.79044048      -0.03279903      -0.01420996      -0.03946739
Ar       7.62842305      15.14481577      14.82330445      -0.00738120       0.11472125      -0.09264992
Ar      14.43582062       6.39814760      12.31739761       0.03840749      -0.01107446       0.00408605
Ar       3.29405549      11.68517539       5.50773647       0.05838763       0.00175948      -0.05173848
Ar       7.55854473       8.86307992       0.59889716       0.01627966      -0.00462252       0.02473046
Ar       5.63824341       0.82510365      13.06378793       0.03043794      -0.02561225      -0.08815194
Ar      10.74624423       5.13385605       9.91950660      -0.01080160      -0.01428161      -0.02134233
Ar      11.25066496      12.42030243      16.67213268      -0.04702067      -0.02245772       0.01614267
Ar       5.20127908      14.98116153       7.82185439      -0.02075055      -0.05162815      -0.03010215
Ar       2.17841329      16.36332136       6.95507721      -0.00125166       0.07345399       0.08446967
Ar      13.86499286       0.41035887      15.38939253      -0.09568072       0.11891006      -0.03200144
Ar      11.78175155       4.93219303       4.55363859       0.04726666      -0.04388230      -0.02353367
Ar       1.88404702      10.32951128       8.76192201       0.11557080      -0.01158503       0.01219734
Ar       3.80357022       7.52162644      15.23770276       0.05535018       0.10973913      -0.01172759
Ar       4.99938475      10.21850538       2.70089880      -0.09199626       0.01311129      -0.07686399
Ar       3.31883016       0.87537224       0.61861043      -0.04655673       0.01597119       0.03923410
Ar      16.15910683       2.01527072      10.73684251       0.02329754       0.03165586       0.12489601
Ar      10.61989102      16.00049546      16.24797986      -0.07670374       0.02075825       0.03491841
Ar       9.51127949       8.20747129      12.02844578       0.03437589       0.00027303      -0.00698602
Ar       9.54547869       0.18784165      12.81606136       0.01276062      -0.04779801      -0.07793969
Ar      11.63950402      13.18409835      13.43174498       0.10164829      -0.00610552      -0.03519955
Ar      16.15825044      12.68268514       7.18743083       0.00802378      -0.00594862      -0.04797408
Ar      14.24830018       5.91506836      17.17542266       0.05553100      -0.05200014      -0.00819668
Ar      11.61807946       8.81124690       0.94017874       0.03129750       0.04182209       0.05164740
