108
Lattice="17.35 0.0 0.0 0.0 17.35 0.0 0.0 0.0 17.35" Properties=species:S:1:pos:R:3:momenta:R:3 pbc="T T T"
Ar       1.58438169      14.65563385       4.84257333       0.02887428      -0.01308454       0.01796820
Ar       9.74132315      10.36651439       5.37124724       0.02607406       0.04688186      -0.02984762
Ar       6.50064061      10.60465277       2.89789490      -0.05100601       0.06702088       0.10268665
Ar      17.04823831       7.49750255      10.16052421       0.08609690       0.04997386       0.00515130
Ar       7.63885583       3.70254482      13.89648891      -0.03949714      -0.01555775       0.10978535
Ar       3.64813434       5.86375031       8.34696255      -0.06227872       0.06545471      -0.03502806
Ar      17.23660277       5.30680281      13.02241883       0.02936008      -0.04566833       0.07177411
Ar      14.07373446       5.10175996      10.91758004       0.07666306       0.03625510      -0.09808296
Ar       9.20870439       1.96467021       6.09090349       0.08042039       0.00203982       0.02094692
Ar      12.81791058       3.13408344       7.51762039       0.00375092      -0.01296574       0.08226830
Ar      16.71831714      12.38138374       8.28492235       0.02133275      -0.02803734      -0.07108464
Ar      12.07306510       0.95304182       0.63683332       0.02938741      -0.05727254      -0.02338660
Ar      10.27644773       8.88804236       2.05526891      -0.03504239       0.09079269       0.03880322
Ar       4.81007088       1.42874951       8.51875088       0.09258335      -0.02773679       0.00062634
Ar       8.55160449       5.24027299       7.96222698      -0.08414373      -0.04035004      -0.04233054
Ar       4.31627147       0.40546884       0.56093310      -0.12209766      -0.02609993       0.01541085
Ar       0.32719065       1.51533264       0.11212054      -0.09554424      -0.00619684       0.03306057
Ar       9.85300120       3.10484115       2.90767312       0.01140909      -0.09406109       0.00480900
Ar       6.44424912       6.96067840      10.54694869       0.00851432      -0.00683753       0.06972919
Ar       1.66327603       7.56403466       6.24732175      -0.00474451       0.06779148       0.04165034
Ar      12.90931392       1.49065622       4.13309705      -0.00232811      -0.10840121      -0.01327361
Ar       5.02386906      15.46322699       7.89767131       0.01038218       0.00604406       0.01373507
Ar       4.71881099       2.45589969      15.10018455       0.05367353       0.01428760       0.00234509
Ar       6.64984072       8.25986105       6.49020025       0.05069975       0.05718010       0.03180011
Ar      10.09440358      16.63528100       3.80256003       0.06710252       0.03189388      -0.00166979
Ar       6.70145302      16.39121068      14.30361800      -0.03803447       0.06653144      -0.01434354
Ar       5.45721843       6.12579042      15.61239361      -0.09530218      -0.03878995       0.01637672
Ar      11.25330807       2.73689065      15.17109313      -0.05255956       0.01163477       0.01314561
Ar      13.53671933      14.79803163       9.13017377      -0.05545281      -0.11400715      -0.01032001
Ar       2.74518974      13.15439556      10.12798988      -0.02447121       0.09867615       0.11857166
Ar       6.67143724       7.04585583       2.13924582       0.02145156      -0.05675125      -0.14887432
Ar      15.39999325      15.48937774       2.14975537       0.08340744      -0.04784253      -0.06297218
Ar      10.02246393       6.35069211       4.89014308       0.03238997       0.07794557      -0.02337128
Ar      12.74374027       5.13273507       2.00841271       0.03083614      -0.07285321      -0.07798061
Ar      15.65408194       5.22038462      17.14932519       0.05369823       0.10243888      -0.03537494
Ar       0.25502251       8.29885961      15.69854860      -0.05902358      -0.01382113       0.00929745
Ar       2.16580895       2.59780032       6.55671684      -0.01836102       0.05028654      -0.02882017
Ar       3.87005218       3.98831766      11.43139828       0.07698704      -0.03924870      -0.02166906
Ar       3.93138821      17.14288472      11.96734414       0.03683418       0.08112081      -0.00153358
Ar       0.82989226       1.87947822      13.66396598      -0.02267889      -0.00111678      -0.00230049
Ar      15.48745307       5.84818347       5.72622582      -0.00417784      -0.00965577      -0.01148927
Ar      12.09814127       6.67854886       8.37108303      -0.00583517       0.09528427      -0.05619041
Ar       1.10525417      16.37491985       9.10682314      -0.04830793       0.00385906      -0.01954670
Ar       8.07475749       8.98953737      16.46418197      -0.00938693      -0.00321372      -0.03327381
Ar       9.56079293       5.28625794      17.30360978       0.06512567       0.00144946       0.09883871
Ar       1.74750681       5.00633983      15.91684362       0.04198715      -0.02663828      -0.03951753
Ar       5.68445275       9.55264980      14.24975491      -0.05151839      -0.03285533       0.05624512
Ar       2.50211659       4.47788198       2.61243272       0.05523908       0.03622142      -0.01831940
Ar       5.00191806      13.29631504      14.59872074      -0.11017888       0.01374811       0.01978650
Ar       0.97394776       2.79318505       9.87445443       0.01263964      -0.03614690      -0.09365581
Ar      13.03557972       1.68595115      11.88920264       0.11761950       0.03950825      -0.08863752
Ar       2.80016977       7.33095419      12.65423505       0.05738280       0.00691322       0.04766994
Ar       5.94542220       3.73885793       0.85853478       0.06126722       0.00025547      -0.03486101
Ar       8.48574866      10.52365389      12.35140148       0.08072808      -0.04136143      -0.08880718
Ar       2.00109092      10.84416178       2.73480414       0.03476499      -0.01514205      -0.05331070
Ar       2.00376854      10.00456929       8.89086848       0.01633931      -0.07039480       0.05767776
Ar       2.08728195      11.29374475      16.35706493      -0.00085192      -0.00062571       0.00135290
Ar       2.97379688      16.57234850      15.00976206      -0.05994289      -0.01294338      -0.02166064
Ar      13.60231863       8.19438085       3.57490633      -0.07808148      -0.05877381       0.01530513
Ar       9.21568412       9.22382371       8.77090841       0.00541487       0.09517751       0.05380604
Ar      12.60343155      16.34444659      14.77504875      -0.01227660       0.04968388      -0.07057211
Ar       6.07767383      13.80794363       4.47911451      -0.02983109      -0.04925844      -0.02216939
Ar       6.30587379       4.49259833       4.69355064       0.00615828      -0.03485205       0.04238569
Ar      16.13445354       3.26818360       2.63917885       0.04883853      -0.01306119      -0.07284880
Ar      16.63018255      10.78059788       5.04599760      -0.03032516      -0.03295932      -0.08643900
Ar       6.84180832      12.03398586       7.83704103      -0.03609527      -0.05033703      -0.01865257
Ar       6.08312513      14.50857968       0.45257201      -0.05515459      -0.00386848      -0.00961166
Ar      10.17386601      13.48796517       9.27587149      -0.02038469      -0.07819776      -0.00166102
Ar      12.30841560      11.97524648       2.64811235      -0.06260325       0.01694848       0.00117913
Ar      11.89316621      10.77101149      15.04689207      -0.01520823       0.00458611      -0.07040202
Ar       8.68025265      15.21139793       6.87973309      -0.04203022       0.01296377      -0.00779036
Ar       8.42806676       2.05458769      10.86132272       0.03080147      -0.08856514      -0.00633367
Ar      14.60065745       9.24750738       8.01864318       0.05525767       0.10553770      -0.00919156
Ar      15.83531690      14.97755448       6.20936300       0.04675560       0.04229276       0.05335611
Ar       6.82334395       0.45455460       3.52389679      -0.03810321      -0.04389962      -0.07859954
Ar       8.10049477      16.12652779      10.05043927      -0.04147094      -0.03196127      -0.08464730
Ar       8.89576845      12.01172962       0.27130951       0.08931807       0.07417909      -0.00295457
Ar      14.60985942       2.25106978      15.37110515      -0.06162572       0.05495672       0.02651375
Ar      15.63147108      11.04444028       1.21983134      -0.09046061      -0.05974420       0.02866044
Ar       1.56072624       0.81158529       3.40141668       0.03348877       0.03321080      -0.04754291
Ar      16.57995738      15.66975063      16.07908681      -0.01137896      -0.03928515      -0.02060127
Ar      16.13448652       1.44239728       5.70702714      -0.00964697      -0.08397763       0.05606577
Ar       9.75377219       0.02402972      13.35493065      -0.00529201       0.04414153      -0.00836658
Ar       0.82157963      14.27418720      12.84415518      -0.09013024      -0.07719486       0.05569247
Ar      11.78647274      10.02891852      10.95906338      -0.06971301      -0.00992455       0.03974328
Ar       4.85676880       9.98459285      10.73335844       0.05427487       0.00578113       0.01730550
Ar      14.68820162       8.82434810      12.94875661      -0.00782806      -0.02292866      -0.07723805
Ar       3.87694806      10.82148074       6.27733112       0.03708021      -0.01344120      -0.08453405
Ar       9.77333399       7.81062098      13.95697810      -0.09643451      -0.04938054       0.00814997
Ar       8.59667491      13.58168981      14.35270494       0.00794326      -0.03906317       0.05208784
Ar      12.93938890       6.09826710      14.26364972      -0.01255218      -0.05414174       0.04582792
Ar      13.46425761       8.20747725      16.84989043      -0.03237598       0.03660773       0.07776216
Ar      15.68712606      16.97586090      12.74312595       0.02075837       0.07252565       0.07877964
Ar      15.03035781       0.81612964       9.02973712      -0.02058413       0.07149793       0.05556464
Ar       0.65872271      10.26542709      12.40217333      -0.02180258      -0.05593689       0.09723191
Ar      12.36367101      13.64958257       5.82002290       0.09126993       0.01971755      -0.06305075
Ar      14.64180534      12.27811433      11.62482676       0.07817255       0.09010112       0.07415108
Ar       3.21938121       7.92994796       0.88864052      -0.02461891      -0.04248400       0.02794455
Ar       9.59519632      15.79285058       0.16643476       0.08676328       0.00170778       0.03878533
Ar       2.43268436      15.19274182       1.46626286      -0.04665810      -0.04822149       0.05821928
Ar      11.39310958       0.16539606       8.27184806      -0.03095594      -0.01891623      -0.03213409
Ar       7.62929260       1.45589725      16.65912230       0.10187304       0.04902474      -0.04639409
Ar       9.92197206       5.66641493      11.17283689      -0.04750252       0.06316081       0.09231340
Ar       6.15333636      13.38533114      11.25608843      -0.11263354       0.00748316       0.06444467
Ar      11.70509850      14.71362737      11.95708133       0.06478064      -0.02826447      -0.05311704
Ar      13.35257462      13.57930634      17.13378294      -0.02584100      -0.06522362       0.04691628
Ar      16.15257475      12.12320219      14.98459729      -0.05514801       0.06165172      -0.00159016
Ar      17.09185741       7.95378506       2.84125989       0.07354190       0.07511312      -0.03172842
