108
Lattice="17.35 0.0 0.0 0.0 17.35 0.0 0.0 0.0 17.35" Properties=species:S:1:pos:R:3:momenta:R:3 pbc="T T T"
Ar       4.47553998       4.69867026       6.09627811      -0.05833265       0.04736819       0.04332662
Ar       6.97520682       7.72702828       2.67718574       0.01211136       0.07480029      -0.07655764
Ar      11.16680829       9.50174232       4.65430971       0.03514077       0.06442351       0.02667724
Ar      14.73802364       7.43514681       9.76015441      -0.03389270      -0.01463982       0.05774388
Ar       1.83718760       3.57138478       8.45803484       0.11907240      -0.08246253      -0.01483618
Ar       3.31690994       1.70817990       1.83694205      -0.02711779       0.07651198      -0.00745116
Ar      15.51722075       5.14979051      16.33651214       0.08264017       0.01934868       0.06004574
Ar      15.26562647       3.75107016       9.29529704       0.04889751      -0.07452438       0.01036814
Ar       9.88041718       5.30778984       4.21367555       0.09635735       0.02730070      -0.03028501
Ar      16.47154509      14.95405376      15.41033947      -0.04066595      -0.01940503       0.09966876
Ar       9.94736262      10.45368682       8.23977546       0.05357383      -0.08853031      -0.01252625
Ar      17.13448189       2.84540685       4.89264480       0.01868427       0.03311621       0.00272433
Ar       0.19866245       3.92520692       1.56778057       0.01298367       0.12362861       0.10782488
Ar       5.10040388       6.28278590       0.40329534      -0.03276588      -0.13084865      -0.00573825
Ar       6.52779428       4.19396129       2.66915155      -0.10878251       0.05914404      -0.06325892
Ar       0.19777313       0.34912677       2.88143205       0.00451970       0.07626997      -0.05715887
Ar       5.40602743       1.48700561       7.39198328       0.04441844       0.05038545       0.00213463
Ar      11.24157196       2.85477721       1.70380635      -0.00512509      -0.02153575       0.01240365
Ar       5.41905048       5.01681922       9.46289741       0.04984815       0.04799813      -0.06585545
Ar       1.59339364       8.98427535      17.18822558      -0.01658541      -0.02070275       0.00482050
Ar      14.19312217       5.36941823       6.13616719      -0.05224642      -0.07726598       0.04735498
Ar      15.02556168      16.55751198       8.95977206       0.00907908       0.04609019      -0.08004959
Ar       4.18227283       2.94317368      15.76725167      -0.06701424      -0.07522577      -0.12686645
Ar       2.48667844       6.76835342       3.16357655      -0.01949035       0.01483216       0.06044483
Ar      11.51803558      16.71349592       3.78054568      -0.01008217      -0.02186506      -0.04580793
Ar       7.77274247       2.51286334      16.52511382      -0.08480806      -0.04524398       0.04663018
Ar       6.73415361       5.74065694      14.04124517       0.12494001       0.09638554       0.00118461
Ar      10.55123204       2.75452928      12.07953606       0.01575166      -0.02341201       0.05609605
Ar      13.99701205      15.01021088      12.56791332       0.00649923      -0.02219491      -0.01409639
Ar       2.16205077       0.17825258       7.57084131       0.06206891       0.04876457       0.07158855
Ar       9.26331386       5.69270870       0.86251176      -0.05435761      -0.02993299      -0.06500554
Ar      11.87792353       3.42468958       8.13487318      -0.00272036       0.01370400       0.03038114
Ar       7.49933592       7.86028660       7.32137811       0.02117685       0.01451346      -0.01960503
Ar       9.91874146       5.35731482      14.88151269       0.07027918       0.04562755       0.02684250
Ar       2.42084062      16.27490641      17.09875078       0.00165511      -0.00506642       0.02657776
Ar       1.19688536       6.49550344      10.26963373      -0.10322992       0.00581439      -0.05213469
Ar       1.99755392       5.67362222      15.86699280      -0.03423187      -0.07183518      -0.03219972
Ar       0.60919545       1.80072104      15.38329702      -0.02576563      -0.03663649       0.06195325
Ar       8.41950087       4.44995713       7.41073618       0.03986485      -0.00350002       0.07711413
Ar       4.19980729       2.20787186      11.47644585       0.04524966      -0.05146961      -0.00301112
Ar      17.32646203       6.38961587       6.40791635      -0.07996365      -0.04008949      -0.02175918
Ar      11.15688115       7.24114078       7.68304281      -0.01889650       0.00433256      -0.08300260
Ar       0.72818453       2.90659196      12.08253033       0.02942847       0.04904584       0.02774614
Ar      10.08931649      12.87972811      15.81268896      -0.04717754      -0.04608662       0.00842054
Ar       8.28262589       8.45172543      15.94804990      -0.07523195      -0.03770771       0.04721526
Ar      16.53595356       5.77929534      13.13873339      -0.03861978      -0.09191453      -0.06426422
Ar       4.51935855       9.36870526      14.15305191      -0.06899220       0.00071800       0.04658061
Ar       3.56410546       5.74272082      12.87633098      -0.02498924      -0.01761264      -0.06215052
Ar      15.32122761       8.54820430      15.98442022       0.09621596       0.10123480       0.00411874
Ar       0.07529276      16.74688827      12.30478126       0.03806602      -0.00687565       0.01760880
Ar      12.49362920       2.80776087      15.66659750      -0.06075746      -0.04411437       0.14004584
Ar      14.40884348       1.76684345      12.51577151       0.10462188       0.08860685      -0.02380164
Ar      13.42371910       1.78448344       5.21405620      -0.06077483       0.07099270      -0.03163476
Ar       5.54161166      12.82967510      11.82305196      -0.04686116      -0.01250450       0.02138448
Ar       0.90231483      10.00161073       5.09806553      -0.00286347       0.05277599      -0.03859574
Ar      16.85040086       9.96093732       8.99847870       0.03670360       0.02439404       0.00887892
Ar       4.86968956      10.41764018       0.10629134       0.05567746       0.04794063       0.00203486
Ar       5.55812402      13.46764160       2.98497024      -0.03403173      -0.03582548      -0.07274330
Ar      14.43832479       9.16380828       6.13358224      -0.01285878      -0.11677913      -0.07523453
Ar       7.75544298      11.99524510       5.19784769      -0.01827716      -0.02681856      -0.06303386
Ar      15.90973498      15.08406018       1.71227141       0.00068264       0.02040054       0.00439439
Ar       9.06106960      14.31962798       3.06068536      -0.01686161       0.08345964      -0.05475492
Ar       9.63040833      17.10084863       0.69682873       0.01390937      -0.02725371       0.03178964
Ar      16.33197732       8.01051173       2.84054998      -0.00448097       0.02931230       0.04387802
Ar       4.23741594      10.04805455       3.81225853       0.00771213      -0.05911801       0.08069232
Ar      11.70015297      15.94553746       7.08833862      -0.00975536      -0.05465914       0.02156502
Ar       6.01456445      16.06309355       0.23067002      -0.14209463       0.09943135      -0.06327303
Ar       8.86130528      14.00298736       9.84377987       0.10023979       0.11540260       0.07919559
Ar      15.29263851      12.41630251       4.41534948      -0.01398793       0.04638754       0.11181801
Ar       9.16262265      10.71848742       1.23179789      -0.07463755      -0.05981634       0.05880346
Ar       9.43840657       1.65917861       5.63426388       0.03876162      -0.10298251      -0.08875441
Ar       8.57714087       1.08541359       9.34397124       0.03415891      -0.03331847       0.07169896
Ar      11.32800989      12.99868900       5.48196037      -0.01039117      -0.02463776       0.08587175
Ar      16.60576683      13.54170178      10.43730854       0.02049096      -0.02164113       0.02323091
Ar       0.52817561      13.59100222       6.90441890       0.07400447      -0.02604235       0.00397040
Ar       5.05428154      13.85747344       6.63645570      -0.05402732       0.03743721      -0.02100304
Ar      12.73707849      12.18194357       1.71528305       0.05191921       0.08479321      -0.02221322
Ar      14.99231611       1.29664064       0.37405135      -0.05920914       0.00439695      -0.00184208
Ar      12.92510161       6.19866701       2.41859722       0.02025539       0.03545657       0.06446590
Ar       8.48870743      15.56726647       6.76895762       0.02362584      -0.09634081       0.02357256
Ar       2.61000894      16.00382995       4.49837404       0.04990688      -0.06537029      -0.05233218
Ar      15.59726795      15.94567260       5.55053463       0.04616243       0.03557437       0.00077020
Ar       7.27185680       1.20559939      13.08972721       0.03463925      -0.02594625      -0.03134347
Ar       2.00954504      12.97067209       1.78876715       0.01077469      -0.05283464      -0.02737478
Ar       6.17781351       8.32072248      10.97040565       0.06846671      -0.10757893       0.03843284
Ar       3.13110390       8.15589909       7.70474838      -0.04555415       0.00884725      -0.03735790
Ar      10.94116470       8.74603739      11.70833167      -0.05784715      -0.00710367      -0.03898894
Ar       3.28088203      11.10312239       9.85448875       0.01137090      -0.09790003      -0.00551475
Ar       1.01254375       8.98026846      13.44086968       0.03584971      -0.00572939       0.00393283
Ar       4.00333513      16.51428223      13.54968140       0.00753502       0.06592753       0.02591302
Ar      12.88790985       5.42435331      12.49856875      -0.00414068      -0.08103986      -0.08060424
Ar      11.74848219       8.06774974      15.60519207       0.03757536      -0.01828434      -0.00771150
Ar      13.54234945      11.88370504      15.21249946      -0.02574333       0.03024492      -0.13169973
Ar       1.11073587      12.12746156      15.46949297      -0.04000409       0.01891887       0.03662037
Ar       2.17294583      13.45075638      12.16467749      -0.00309614       0.11107398       0.00595509
Ar      13.77884820      12.64211271       8.22422385      -0.09019453       0.09001628      -0.06481914
Ar       8.26485215      10.75392495      13.05541514       0.09141500      -0.04271884       0.06792014
Ar       5.54079103      13.45165271      15.22911346      -0.01456339       0.01950533       0.01029955
Ar      13.22931568      15.22163760      17.13998690      -0.01519931       0.05492089      -0.06010546
Ar       6.12160326       0.06081774       3.66451245      -0.05110957      -0.00695342      -0.03972963
Ar      12.00954206      17.23633707      10.68438631       0.06074484       0.15568190       0.02671693
Ar      10.81191604      16.78802347      14.67255704       0.03080734      -0.00902844      -0.10747508
Ar       8.68579279       6.07163498      10.55375403       0.06187334       0.00913061      -0.03843387
Ar       8.19779026      15.16819175      13.24094893      -0.11050496      -0.04279985      -0.00064910
Ar       5.38020325      16.11948855       9.83380540      -0.00282218       0.02597333       0.01869737
Ar      11.72689907      12.43034807      11.46070713       0.05359151      -0.06843956       0.08876272
Ar      14.27533459       9.84262506      12.67130213      -0.00510582      -0.05616702       0.00236917
Ar      16.04560288      11.47791188       0.97913824      -0.10315783      -0.02203107      -0.00463270
