108
Lattice="17.35 0.0 0.0 0.0 17.35 0.0 0.0 0.0 17.35" Properties=species:S:1:pos:R:3:momenta:R:3 pbc="T T T"
Ar       2.14914970      10.14288912       8.00667973      -0.03965052       0.01693254      -0.00965773
Ar       6.74536746       4.51571162       8.52867151       0.02135288       0.09747601      -0.01775618
Ar       9.59257224      12.71245051       7.41516192      -0.08488687       0.03566904      -0.12185675
Ar       3.25040063       3.27984456       9.27877680      -0.09526618       0.02917944      -0.03586854
Ar       8.89702701       4.48522513      16.58474902       0.06695178      -0.05394126      -0.04184031
Ar       7.83661359       7.52650351      10.40836248      -0.04756563       0.03729145      -0.09646572
Ar      15.38234168       4.30422867      17.32870918      -0.01328938       0.01685425      -0.03801661
Ar      14.48391620       3.75155478       6.34814383      -0.04961369       0.04910996       0.03690204
Ar       9.36074904       6.80363688       6.91328205      -0.00242385       0.00160638      -0.02755008
Ar      12.01782543       7.01644069       3.41935042      -0.04929764      -0.00343199      -0.04511779
Ar       1.39883831      13.08578104       9.34299190       0.06725965       0.03245280       0.01866646
Ar      16.54575283      15.67151137       9.99516863      -0.07445191       0.04249507      -0.01324732
Ar       4.28531804       9.73867696       5.13172207      -0.07822330      -0.01474131      -0.03238667
Ar       4.98864312       2.87731764       4.88676028      -0.05002135      -0.03725556       0.05254428
Ar       4.74170358       6.12987706      11.68616176      -0.08354199       0.03769812       0.01348766
Ar       5.75914245       4.50553588       1.79753546      -0.05644298      -0.00032709      -0.05697554
Ar       0.35036062       0.85081102       2.39059935       0.02459018      -0.02822675      -0.00841959
Ar       8.59919834       6.32081735       2.56416472       0.06734762       0.00274810      -0.04785677
Ar       7.88764337       5.10203416      13.27778460       0.08828402      -0.01847944      -0.05990182
Ar       0.82132162      10.64124428       3.55102466      -0.04272086      -0.03620989       0.03601325
Ar      11.30704091      16.72574590       5.03355811      -0.04297763       0.14514110       0.00540145
Ar       5.01325127      13.52226426       8.30038593      -0.04092358      -0.03536110       0.05256946
Ar       0.41667588      17.17543443      13.01489428      -0.02850209       0.02182812      -0.05275413
Ar       5.81780575       8.60887422       1.43316380      -0.07612435      -0.10108296      -0.04737038
Ar      11.81453384       3.17736513       1.71635466       0.12142110      -0.02636936       0.02048113
Ar       5.51766240       2.91823680      15.08816382      -0.03676030       0.09859293       0.03819239
Ar       8.72428659       0.91037315      16.11294294       0.00248405      -0.03862707      -0.06977642
Ar      10.73679881      15.22071464      13.66111484       0.02369466      -0.00619604      -0.02241353
Ar      16.47348040      12.27697343       6.57494993       0.06376068       0.05851413       0.07433147
Ar       8.14509167      14.96403087      10.56196176       0.08304340      -0.02745697       0.01210398
Ar       4.16741121       6.57835642      15.92624398       0.01391407       0.05197459       0.04797235
Ar      14.00335559      16.21383273      12.81736569       0.05254809      -0.02657843       0.07623549
Ar       7.19829347       9.54678914       7.36243861       0.01351343      -0.04008073       0.16087861
Ar      13.32725814       6.92476890       8.33979941      -0.04479711      -0.04496815      -0.02234165
Ar      12.02760101       6.15683148      16.96374408       0.09189986      -0.08830794      -0.05653054
Ar       9.03691132       8.23439594      17.21148828      -0.00098104      -0.00284126       0.04099688
Ar       2.61573560       7.06944964       3.52803435       0.06174158      -0.14338633      -0.03127403
Ar      10.27902380       0.81134576      11.43012430      -0.03464972      -0.01076335       0.00401283
Ar       8.01710319       0.90295447       8.81043373       0.06347417       0.06213628      -0.01464799
Ar       0.08839621       2.17212976       9.70941895      -0.08599052      -0.03611448       0.08934030
Ar      16.81843909       4.87205805       3.56579508      -0.12360535      -0.00590063       0.09414023
Ar      10.71831906      13.15551384       3.99081019       0.04683717       0.03681848      -0.00904818
Ar       3.06975146       0.06733742      10.86714720      -0.00649967      -0.03788335       0.00370146
Ar       7.47803295      11.58681043       0.52827005      -0.09203432      -0.05024664      -0.00575127
Ar      13.05839672      10.05646129       6.05124729       0.03452997       0.02943438      -0.02413778
Ar      16.11689812      15.84958312      16.18757202      -0.06891489      -0.03987041       0.04185230
Ar       3.07327974       8.95334442      13.34792749      -0.07287358       0.11308013      -0.09609165
Ar       0.72616967       6.64262827      15.21899710       0.01556392       0.03428032       0.02513973
Ar       3.88607437      16.77753604      14.94566903      -0.01943693      -0.01080530      -0.01547190
Ar       5.92133598       2.38929677      11.69296704      -0.05979883       0.01879846      -0.11950563
Ar      14.78579390       4.42542989      10.68779613       0.14967607       0.01329078      -0.00858315
Ar       1.84846490       4.12725751      12.84335893       0.03482709      -0.03083842      -0.02468918
Ar       6.07622093       6.60918733       5.27561851      -0.00489455       0.02569844      -0.01853079
Ar      13.83847225      11.70768474       9.36551166       0.00970180      -0.00248782       0.08084589
Ar       3.79712628      12.00758950       2.04580773      -0.03002595      -0.01158337       0.11065525
Ar       4.11526365       6.98863097       7.99335813      -0.09934291       0.05993401       0.05156581
Ar       2.01440467       8.90141262       0.65985848       0.05066584       0.03660587       0.05356709
Ar       1.03932824       1.59628711      15.75216846      -0.00345676      -0.00844167       0.00113868
Ar      15.61937375       8.08176910       3.63194893       0.01056480      -0.01479396      -0.04951626
Ar      10.63430521       9.64785311       8.73160633      -0.01364257      -0.02790625       0.03696891
Ar      14.57452440      12.48990431      12.76472978       0.04283123      -0.07114584      -0.00926822
Ar      16.32849258      14.70262553       3.39740949      -0.07404491      -0.02239433       0.03061361
Ar       2.51609655       3.98936307       1.95923332       0.00403987      -0.07228020      -0.00978591
Ar      14.01859208       0.79629092       2.71187086       0.01065722      -0.01473293       0.03047917
Ar      17.35278604       7.08176531      11.65330318       0.13577591      -0.02584362       0.07633245
Ar       7.44892163      11.01524798      10.94491339       0.08792433      -0.10871883       0.01435628
Ar       3.64485829      16.22066109       4.33000756      -0.09395951      -0.03303955       0.03181193
Ar       7.17375472      16.26158477       5.41151145       0.12235771       0.08335415      -0.00911947
Ar       5.71918733      14.72587338       1.79399554      -0.02215041       0.05426891      -0.03736819
Ar       1.04651534      12.74063185      13.20536131       0.02740147      -0.02163022       0.02228767
Ar       4.68771072       0.52151944       7.33931712      -0.13462842       0.03590163      -0.02679403
Ar      10.58567658       3.91952427      10.23302348       0.01114607      -0.08333121      -0.04840485
Ar      13.79402850       8.93728611      11.42405437       0.05116611      -0.05379371       0.06194498
Ar      13.34906404      13.90078363       5.95979701       0.01110170      -0.10647635       0.06746057
Ar       8.56048547       2.01490613       2.48683868       0.05101342       0.06592822      -0.11493695
Ar      11.51163840      14.51048221      10.04505749       0.02560054       0.00209602      -0.02368736
Ar       6.87076154      12.67428387       4.76715931       0.03469067       0.02067422      -0.05942553
Ar       4.15721834      13.22039743      15.59965791      -0.01603811       0.04192298       0.08657815
Ar       1.82176831      15.47621727       0.95318102      -0.00942318       0.03036094      -0.03088982
Ar      12.72662136      15.09307749       1.43679555      -0.10495287       0.03152336       0.00799921
Ar       0.33082589      12.64942353       0.21462459       0.07577291       0.11613640       0.06093904
Ar       0.93416758       2.49197852       6.32451792      -0.00354745       0.07450962       0.05505256
Ar      10.43661974      11.16620061      12.58941727      -0.00126114       0.10528713      -0.02296137
Ar      16.88099042      10.58104343      10.76077496      -0.00212980      -0.02065257      -0.03196981
Ar       9.32261540       9.47377366       3.74789115       0.12722305      -0.02848837       0.00123015
Ar       4.22118450      12.22716220      11.94602813      -0.01626489      -0.00831584       0.01848469
Ar      14.55802094       6.56474076      13.64960402      -0.06891567      -0.00188936      -0.07669864
Ar       2.59804706      13.05212231       5.41579478      -0.01898713      -0.02572972      -0.02972945
Ar       7.58722082       9.24900876      14.06986155       0.05631248       0.04846071      -0.02611280
Ar       7.44235085      16.94512374      13.34600727      -0.02501041      -0.08720879       0.02076421
Ar      11.69408396       4.20405087      13.73785958       0.03798045       0.04469998       0.05900352
Ar      14.16944143      12.11840542      16.56467703       0.09558208       0.04924304      -0.04936547
Ar       1.81389124      15.81252720       7.20969367       0.01618355       0.04430518       0.10495591
Ar      15.53060402      16.95411421       6.14012584       0.00739710      -0.12591739       0.02366047
Ar      15.53968495       2.40904592      13.52606181       0.04964616       0.00478581       0.02544781
Ar       9.84049510       2.84162301       6.15438018       0.04534998      -0.05800918      -0.10787011
Ar       0.17203854       6.16569860       7.66689285       0.01420462      -0.08371280      -0.06320495
Ar      16.37515992       9.88531923      14.16920789       0.01128958      -0.03875076       0.05931580
Ar       9.78013303      14.61331772      17.00251471      -0.01556616      -0.05508255       0.06827792
Ar       4.17072125       1.08623852       1.09713176       0.00505412      -0.09745568       0.05021231
Ar      13.21394055       1.27010053       8.89170914      -0.00187489      -0.00232345      -0.00837485
Ar      12.89909101       0.57502116      15.87288053      -0.02935765      -0.07103963      -0.12440378
Ar      10.77590472       7.36440987      12.53612678      -0.01990745       0.12463512      -0.03531684
Ar       7.49462270      13.10624792      14.28230418      -0.04227077       0.00809261      -0.07970437
Ar      12.81546365       9.32769027      15.06954348      -0.03016323       0.09840597       0.06421209
Ar      13.92599604      11.64519562       2.84630778      -0.02729073       0.05241400       0.03492803
Ar      15.53489490       7.86736217      17.03765597       0.09247951       0.03531564       0.00884995
Ar      10.96782141      10.78054256       0.95945326      -0.01845619       0.00150532       0.00184079
