108
Lattice="17.35 0.0 0.0 0.0 17.35 0.0 0.0 0.0 17.35" Properties=species:S:1:pos:R:3:momenta:R:3 pbc="T T T"
Ar       0.65325722       9.64829794       4.38438070      -0.00473166      -0.03207182      -0.09604015
Ar       4.76197168       3.63321268      11.68000893       0.10265853       0.02306263       0.05830210
Ar       8.12178928      16.75696451       6.06698358      -0.00781921      -0.07477445      -0.02900967
Ar       1.55235041       3.07647033       9.73134281      -0.02761410       0.00494324      -0.06339491
Ar       8.10896373       1.99299177      12.79187354      -0.06834731      -0.05164516       0.00203645
Ar       7.46475104      11.33510509      10.00720364      -0.04420283       0.01224513      -0.02650858
Ar      14.49784935       3.43661249       2.07761118      -0.06561751       0.09106562      -0.12917106
Ar      13.37195605       2.22421326       8.90770242       0.02696068      -0.03577978      -0.07674027
Ar       9.01327155       8.35710269       8.75390331       0.12002065      -0.05136486      -0.00885591
Ar      12.84161332       7.13340272       1.81224917      -0.00427712       0.06195309      -0.03380402
Ar       0.97344513      12.34970331      11.56736365       0.03011194       0.03266567       0.10183241
Ar      16.72935687      15.76365342      10.88838673       0.00577452      -0.01369394      -0.07655624
Ar       4.36157580      10.41187740       3.69295820       0.00695470       0.02712244       0.05739409
Ar       2.48058322       6.51616846       4.22338155       0.00369539      -0.02043081      -0.08212197
Ar       5.63516004       6.97079082      13.13076988      -0.15462372       0.02213705      -0.12823594
Ar       6.98329607       4.30024683       1.31006412       0.04261735       0.01141077       0.01014900
Ar      16.60262670      15.81280342       3.58904858      -0.07716306       0.05338896      -0.03128155
Ar       9.73196626       7.83272852       3.17500490      -0.02370248       0.08061165       0.03718750
Ar       7.98603770       4.91879358      10.76565756      -0.02258608      -0.02269961      -0.07182236
Ar      14.51051226      10.53031927       2.24760849      -0.15520695      -0.02004937       0.01347157
Ar      11.45086277       0.31345607       6.58473168       0.11018258       0.02381444       0.03015589
Ar       6.08685537      14.59931562       8.16957418       0.04365609       0.07857693      -0.00547128
Ar       0.21065954      15.28812845      14.23762064       0.02332841      -0.04503515      -0.04765593
Ar       5.70525132       7.50462633       2.64405275       0.06393730      -0.03269624      -0.02617588
Ar      10.51241976       3.45661187      16.71777480       0.02223032      -0.04300938      -0.07438977
Ar       5.60217031       3.80312236      15.22787199       0.14696508       0.01198873       0.01913869
Ar       8.26724376       0.39043400      16.66826970       0.00776679       0.01382047       0.02895853
Ar      10.30781421      13.86792082      17.19702865       0.00063978      -0.00412567      -0.02500688
Ar      16.62861672      10.73203209       8.70329857      -0.04188342      -0.08614443       0.02955285
Ar       9.15020613      14.27584237      11.02041669       0.02743969      -0.02482130       0.07610074
Ar       4.73632797       6.62121551      16.80173779      -0.04485994       0.05352043      -0.02422815
Ar      14.15298058      15.53678425      14.44377267      -0.02769014       0.01571403      -0.06696230
Ar       7.78149013       9.83557031       5.82040531       0.03160830       0.00134798       0.03419483
Ar      11.74563404       6.32887666       6.69485413       0.00610646       0.02868324       0.00064566
Ar      12.08583637       6.46829048      15.15268461      -0.01578339      -0.01035388       0.12479012
Ar       8.44129062       6.02176687      15.74893580       0.00880141       0.02371232      -0.03197310
Ar      16.43499336       6.21806905       3.30988036      -0.04782062      -0.11180339       0.00641810
Ar      11.98496795       1.69059586      13.19369033      -0.00978846       0.02088541       0.04547518
Ar      10.07975386       0.23484601      10.52871415       0.04871928       0.10790445       0.12459348
Ar       3.47138391       0.54128952      12.20963614      -0.02535062      -0.05840196      -0.00857143
Ar      14.01169878       3.81549441       5.83265260      -0.09957970      -0.01478497       0.09375577
Ar       9.27226804      15.17613057       3.36671762       0.02896806       0.06284326       0.01810407
Ar       4.07204353      14.28078507      11.28368702      -0.03048479       0.08095930       0.08493797
Ar       4.29567593      10.25847429       0.30719700      -0.00967716      -0.10681289       0.01564403
Ar      15.07944234       8.27984210       5.96161439       0.07393657       0.02121078      -0.01181811
Ar      15.01122059      17.13830443       0.52284436      -0.02403803       0.02695492       0.02418225
Ar       4.42603137      10.27445795      11.48161042      -0.01645435       0.13162101      -0.02874043
Ar       1.81660416       4.85872863       0.58960573      -0.05308047      -0.01294099      -0.00037342
Ar       4.26337712      15.63294123      15.58329850       0.06322730      -0.06044358      -0.09089449
Ar       6.43273253       0.64433790       9.21574302       0.02531371       0.01779208      -0.02029022
Ar      16.15619801       5.74713750       9.19841332       0.00220645       0.09984237       0.03902318
Ar       1.68697394       5.28084861      13.73120986      -0.01048119      -0.01742677       0.06206859
Ar       6.69898350       5.01105649       5.91288173      -0.07965431      -0.02971462       0.03770880
Ar      13.47277321       8.48153997       9.13088038       0.10077988       0.01765686       0.00956556
Ar       1.60020368      12.47705869       2.59017747       0.04412226      -0.01086518      -0.05013809
Ar       4.95040513       8.73705229       7.91701416      -0.03104509       0.03613579       0.07615062
Ar       0.31170118       8.46023068       0.44331417       0.02140260       0.00882175       0.08378377
Ar       0.34100358       1.64010809      16.21058265      -0.02850643      -0.01860083       0.07211315
Ar      16.06294991       5.14080575      16.51704261       0.03263792      -0.02849953      -0.04304966
Ar      11.80451682       9.91134638       5.94450918       0.05086980      -0.02536398      -0.06833652
Ar      14.97261568      12.91844539      11.59943014       0.00089615      -0.09467239       0.04118235
Ar       2.75851679       0.19959561       4.99672132       0.02963802      -0.00481389       0.01070787
Ar       0.64228582       1.49302336       2.73508610      -0.03338041      -0.02810212       0.00779703
Ar      14.17278485       0.62904783       4.73270097       0.01656370       0.03002197       0.00800288
Ar       3.24902973       6.60007334      10.45474957      -0.11127265       0.03238570       0.02088566
Ar       9.30265317      13.30904950       7.42297138      -0.05161210       0.07269644       0.08239622
Ar       5.94971165      16.46633193       2.09747059       0.04835679       0.01660668      -0.06637065
Ar       7.87230941       1.89649692       3.81739193      -0.01779502       0.02328065      -0.02569813
Ar       5.47746497      13.21231733       1.13133087      -0.03419564      -0.01072799      -0.08455969
Ar      16.51039877      10.66441879      14.42577567       0.03149627      -0.06611385       0.00760645
Ar       3.92982108       3.09772259       3.23410679       0.05531463      -0.03357614       0.02334620
Ar       9.15956830       2.82784549       7.24535605       0.00119587       0.00499627       0.09785231
Ar      12.81169288       9.78860521      12.97719680       0.03877340      -0.10455953      -0.01475622
Ar      12.70410372      14.09278984       5.82202831      -0.04160802       0.02496642       0.03696309
Ar      11.49105162       0.64552762       2.44096728       0.00894454       0.01192395      -0.04588401
Ar      13.70245097      15.79940632       8.74787909      -0.01046637      -0.02396389       0.02729164
Ar       4.83647846      14.27395622       4.53243094      -0.04825652      -0.01212233      -0.02724640
Ar       2.87557899      12.45847143      14.65737114      -0.09837095      -0.08443339      -0.03799022
Ar       2.10938234      16.01755694       0.98456199       0.00872993      -0.03304213      -0.03908023
Ar      13.30235501      14.72897466       2.48646428      -0.00852709      -0.07437251      -0.02380702
Ar      16.80690088      14.04022001       0.31686124      -0.00364724      -0.06965068       0.06000315
Ar       0.48891288       4.16060890       6.13557365       0.02813566       0.13077635       0.05592831
Ar      11.20454898      11.50113925       9.95313082      -0.04087112      -0.05876538      -0.02341947
Ar       0.22638264       8.85861026      11.39065117       0.02083307       0.08462742      -0.04205199
Ar      10.79601019      11.65672883       2.93627380      -0.05664189       0.01260404      -0.05954201
Ar       6.48626351      12.82506201      15.06472698       0.03564098       0.04056083       0.02432654
Ar      15.42329100       6.43789561      13.01708993       0.07515593      -0.00117621      -0.14161243
Ar       2.28184092      12.57702030       8.02550929      -0.02210314      -0.00577719      -0.09933411
Ar       6.77893289       9.51914812      15.42220684      -0.04936893       0.02348184       0.04929596
Ar       6.54173392      16.22512800      12.54705790      -0.01632842       0.02112140       0.09806514
Ar      11.90691747       5.11700620      10.68511277       0.03296476       0.04420916       0.02718114
Ar      13.22138822      11.98837987      15.98833419       0.03256841       0.04826951       0.02542786
Ar       2.67865467      16.59291178       9.18402800       0.03582769      -0.00835719      -0.09532837
Ar      16.84157085      16.16576134       6.97704743       0.02235344      -0.01286516      -0.01899048
Ar      14.07770032       2.62665021      15.68970584       0.02901707      -0.06093499       0.06046818
Ar      11.01326306       4.32582960       3.17099202       0.00338925      -0.01633125       0.10901084
Ar       1.41531054       7.70301425       7.59870353       0.02440243       0.07368845       0.02881891
Ar       2.18251646       8.52786909      14.32512994      -0.01874492       0.01007658      -0.05993720
Ar       7.34213958      10.42422335       2.02130899       0.05049621       0.04095466       0.00819805
Ar       4.40303836       1.41136549      17.32606825       0.07010730      -0.05960098      -0.01191128
Ar      15.36106958       2.33481536      12.57093996      -0.01092679       0.05284939      -0.03791277
Ar      11.75818463      17.19738560      16.50568907      -0.04839667       0.04706097       0.04393078
Ar       9.15928409       8.03989165      12.49179984       0.01285842      -0.00239393      -0.04457864
Ar      10.86572229      14.96723124      13.79068042      -0.02395238       0.02690929       0.05278693
Ar       9.70993601      11.54048201      14.31133849       0.03605589      -0.03888763      -0.02299391
Ar      16.35689205      12.77937911       5.66629214      -0.04127134      -0.07957817       0.07397445
Ar      14.47221782       8.61183145      16.46634944      -0.08406001       0.00320389       0.04779170
Ar      10.10501339       9.48436593      -0.00795973       0.05051215      -0.13251116      -0.04605106
