108
Lattice="17.35 0.0 0.0 0.0 17.35 0.0 0.0 0.0 17.35" Properties=species:S:1:pos:R:3:momenta:R:3 pbc="T T T"
Ar       0.14475166      11.88531308       2.53047715      -0.02421429      -0.00849088      -0.03930465
Ar       1.13557050       0.96033542      10.37862753       0.01049723      -0.06108723       0.02425263
Ar       4.41491311      15.77933058       9.47727333       0.01609078       0.00668586       0.07072079
Ar      13.07717843       0.54164665       7.04117341       0.02009436       0.01126703       0.04241529
Ar       3.80982557       3.67001246      12.74319752      -0.12602943      -0.00374011      -0.08987444
Ar      12.18345633       7.47118909      13.48123265       0.01842537       0.07423931      -0.00979047
Ar      12.99103772       4.13735070       1.44754354      -0.11620213       0.04610098       0.01305646
Ar      14.44320525       1.47379760      10.05480549       0.03013257       0.12258718       0.08802748
Ar       9.36822925       8.62795338      11.60206568       0.00093634       0.01101383       0.02727077
Ar      16.69561254       4.28852748       4.17192108      -0.00515128      -0.10421861       0.03003657
Ar       0.23243837      13.25841114       9.18720255      -0.01908641       0.05428612      -0.06351424
Ar      15.93912435      15.87337258       7.67477145      -0.07579478      -0.03638863      -0.04247033
Ar       4.92470095       8.23332682       6.31109694      -0.03069347       0.01815886      -0.04567868
Ar       1.52485313      10.74701034       6.06507570       0.00364799      -0.05081922      -0.03357326
Ar       3.85106928       9.05781722       9.73652808      -0.09571329      -0.05498215       0.06066071
Ar       9.96585917       5.97460122       0.01366394       0.07610511      -0.06622494      -0.01988859
Ar      13.48742485       1.12779478       3.19044929       0.07112022      -0.01862247      -0.03314532
Ar      15.60201606      14.38725871       0.80138279       0.02414295       0.00783727      -0.00646584
Ar       6.09673719       6.26182221       3.45507526       0.05896520       0.05339105      -0.02493303
Ar      12.26259996      14.88317623       1.44968172       0.01260245      -0.00258171       0.00597289
Ar       9.87855002       1.30805239       5.68983517      -0.03536285       0.03730990      -0.00493885
Ar       7.12820551      10.23255474       9.59466436       0.07883516       0.01229820       0.07355104
Ar       3.08494918       9.22962626      14.97291576      -0.04088207      -0.00800705       0.01915288
Ar       8.61596184       7.90640760       7.45984389      -0.07965942      -0.07577569      -0.05982629
Ar       9.89262488       2.44579052      16.87814325       0.07862572       0.13662706       0.12627897
Ar       6.69347646       3.91895466      16.39021499       0.00276725      -0.12143223       0.02620649
Ar       9.15404102      17.06003984       2.43305437      -0.09861175       0.03928302       0.03290447
Ar      13.31323678       7.46400424       0.09252223       0.05400162       0.05963252       0.05337528
Ar      12.06357338      14.78091135       8.62241705      -0.02281120      -0.02911083      -0.08498909
Ar      11.08439861      11.14917422       9.73344180      -0.02453543       0.02131212       0.03275840
Ar       3.01979092       5.67391500       9.28476331       0.02284680      -0.00103825      -0.02467442
Ar      14.16184214      14.49154556      15.05697473      -0.00083635      -0.05344365      -0.04093032
Ar       7.25038830      10.65809307       3.93565618       0.00495575      -0.11109061      -0.04362705
Ar      12.15639742       4.51936292      11.26664355      -0.07163828       0.01376687      -0.04029655
Ar       3.23913430       5.91024613      16.19150749      -0.03029354      -0.05571977       0.04778192
Ar       8.85437639       6.00736344      13.84729327       0.02087328      -0.05611036      -0.08972225
Ar       1.94796574       6.93327667      12.57914209       0.02534883       0.10361949       0.01559959
Ar       9.05787586       2.10906424      12.55203027       0.07982563       0.02170947      -0.07435161
Ar       8.66243338      16.53747970       9.70429605       0.00252799       0.10639882       0.02989471
Ar       1.50764176      15.16765920      12.36739258       0.01699495       0.00878509      -0.01529995
Ar       2.94977430       2.27327173       0.74052696      -0.08047767      -0.01604371       0.01822455
Ar       3.31768954      17.11557457      14.58045405       0.03298783       0.02900870      -0.08111224
Ar       7.10571283      13.53425743      10.72245360      -0.08637162      -0.10516669      -0.06519961
Ar       2.32170419       5.46003902       2.41121480       0.01380472      -0.06769215      -0.06766087
Ar       1.06927937      10.40885921      12.14271932      -0.01254776       0.00237232       0.09642961
Ar      14.47748890      15.54894884       4.27356314      -0.07165605      -0.05299894       0.03983886
Ar       6.30035199      10.62748656      13.34108157       0.05689705      -0.05553244       0.05064892
Ar       5.21363166       7.09777239      13.00821476      -0.04576973      -0.04541179      -0.00555257
Ar       3.53921870      13.14652845      14.70157303      -0.01533652       0.01810761      -0.06451328
Ar       4.78111525       1.94011174       9.22227169      -0.11424820       0.03864472       0.03615432
Ar       3.40721011      12.62402655      10.77874543      -0.01105355      -0.09099267      -0.01198935
Ar       1.24657887       2.98600291      14.77015158       0.02163225       0.02702843       0.06091811
Ar       6.57537761       7.54767790      16.62680061       0.11460149      -0.01859507      -0.02313994
Ar      15.04142064       8.14747122      11.34123761       0.01295075       0.00124230       0.02786139
Ar       4.06271463      16.66946815       2.46112468      -0.01040155       0.03599973      -0.09100998
Ar       1.30462076       7.05799727       6.16991559       0.01150974      -0.06210692       0.04721484
Ar       4.23004233      11.24106144       0.63766583      -0.06908452       0.09446281       0.00376574
Ar      14.62881625      15.93659175      12.01040198      -0.05939263      -0.03549840       0.07512856
Ar      16.58189880       3.14699845       0.88605013       0.01164824       0.07132792       0.05095666
Ar      11.17359943      10.94072032       6.06396632      -0.04062333       0.01337057      -0.00532712
Ar      14.57899845      11.17840212       8.86686744       0.03931514      -0.15628252      -0.06035994
Ar      14.84496399       5.29662135       8.68873208      -0.00219150       0.02922773      -0.01393999
Ar      17.15020271       1.16182848       5.17562899      -0.02514536       0.02029089       0.00848691
Ar      13.01436559       4.02113293       5.24900755       0.07606280       0.01125766      -0.02003423
Ar       0.21086163       9.09086120       8.96775066      -0.06769307       0.05044540      -0.05501968
Ar       8.52050764      12.65146099       7.07944995       0.04128210      -0.00801127       0.02993684
Ar       3.50586079       3.63563513       6.03757655       0.00237143       0.03530423      -0.16533802
Ar       6.96548280      16.83995306       6.44681519       0.02619388       0.01951870      -0.02739933
Ar       6.30236739      14.34662522       0.62594676       0.03454925       0.05341966       0.02278739
Ar      14.21509645      11.12187439      17.07082368      -0.10348912      -0.00105312       0.05361106
Ar       5.91101172       2.66907750       2.73240927       0.04023837       0.06860385       0.01524289
Ar      10.83964966       3.82844672       8.09828848       0.02472102       0.03450715      -0.06410396
Ar      14.07718450      11.89899995      12.36069385       0.07618930       0.05506969       0.00348488
Ar      11.16986133      14.88532975       5.01159093      -0.03665067      -0.00940429       0.07983583
Ar       9.34162533       3.64955654       2.86361579      -0.00640016      -0.00521098      -0.07475399
Ar      14.07406680       1.94963964      13.37307453      -0.00129657       0.01936279       0.05494843
Ar       7.79073308      11.04321781       0.25473637      -0.02387939      -0.03569258      -0.04612852
Ar      10.28620116      11.61160709      13.03815496       0.01239117       0.01652428       0.03057621
Ar       2.30047677      14.18370475       0.54782686       0.08757021       0.04724122       0.04558473
Ar       7.60330788      14.25700542       3.72707578      -0.04791411      -0.09671630      -0.06134079
Ar      17.24408895      13.02401365      15.02769406      -0.11762189      -0.02271549      -0.03865418
Ar      12.08106507       8.05455180       8.89148390       0.01723053       0.00710611       0.06560187
Ar       6.93340362       4.36586366      11.10145372       0.04448876       0.05008106       0.03488343
Ar      16.79292965       6.30487960      16.24439796       0.03061154      -0.00506811       0.07351344
Ar      10.79935215      10.51855821       1.99869388      -0.03273015      -0.06298921       0.07823282
Ar       7.30951085      14.22675120      14.47175983      -0.09565787      -0.08899194      -0.00010589
Ar      16.57730647       4.49443593      12.01835346       0.05322816       0.00809234      -0.04612991
Ar       0.36741291      14.11491210       5.32283810       0.10048064      -0.00424685       0.05859523
Ar       9.35421543       7.65258069       3.45773257       0.06755630      -0.00686255       0.08006744
Ar       6.68780400       0.59818729       0.08317110       0.05329657      -0.07052644       0.09032288
Ar       7.54646997       4.32539670       6.66154527       0.03609576      -0.05433782      -0.07603930
Ar      11.24016705      12.45188401      16.38799055       0.10110773       0.03926875       0.04668073
Ar       2.85252781       9.21687721       3.15437919      -0.00540586       0.02650269       0.00916791
Ar       3.38053555      15.66348385       6.02869756       0.03764837       0.00079961       0.00413789
Ar      13.11984362       0.54473669      16.61010901      -0.07068727       0.01509498      -0.06944200
Ar      15.37414562       9.09192026       5.80926749      -0.01616906       0.08424814       0.05267371
Ar       4.31054678      12.34124392       7.36678426      -0.03532139       0.05538721       0.03920945
Ar       9.92332950       9.12251293      15.48753857       0.00475879       0.08334153      -0.01984360
Ar       4.24936225      12.89786975       3.68717921       0.02946689      -0.05688942       0.01551524
Ar       0.56632541      16.93774516       2.06397239       0.07457050      -0.04411662       0.10589174
Ar      16.71600720      16.87260115      15.15665815       0.04619707       0.03232386      -0.02025172
Ar      10.06962742      16.20336207      16.40338075      -0.00493206      -0.14834030      -0.09558550
Ar      12.67723985       4.34048047      15.24627874      -0.01851682       0.00799991      -0.06366476
Ar       6.10411750      16.92040271      12.56802595      -0.01583659       0.05198688      -0.08984330
Ar      10.91264830      15.53751292      12.78594790       0.01134346       0.05001946       0.02384989
Ar      13.71803970      12.15219549       2.93114767       0.02829465       0.03780326      -0.03032733
Ar      16.07530076       8.80798227       2.18201647       0.05672061       0.01180109       0.09111715
Ar      12.78992431       7.08818815       3.31138991      -0.01835859       0.02587369      -0.09990879
