108
Lattice="17.35 0.0 0.0 0.0 17.35 0.0 0.0 0.0 17.35" Properties=species:S:1:pos:R:3:momenta:R:3 pbc="T T T"
Ar       5.37471905      11.86166325       6.39245920       0.02386590       0.02140570       0.00499748
Ar       4.81989125       5.63462489       7.79560145       0.01531354      -0.11390356      -0.07559516
Ar       9.17601224      11.86608817       6.60526775       0.08929580      -0.00935314       0.00423271
Ar       2.52102135       3.40820160       9.17819209       0.14474248      -0.03034516      -0.08195338
Ar       7.13902820       7.04181447      17.00410109       0.00608611      -0.07706856       0.04252270
Ar       6.85090354       8.40583915      10.46421356       0.03379963      -0.05335665       0.04785216
Ar      15.40040287       2.76987000      14.77964458      -0.06728757      -0.07672452       0.05690739
Ar      15.59345146       3.91613024       6.88094043      -0.02225011       0.02034432      -0.04265865
Ar       9.87160955       5.54822240       5.97202012      -0.01768493      -0.04310293       0.04405323
Ar      13.15446733       5.10728907       4.60486649      -0.05176567       0.01768923       0.02989401
Ar       3.21939715      13.17080112       8.85020207       0.00639317      -0.01007000       0.04740952
Ar      15.06972008      15.73842277      11.22016078       0.07833302      -0.08374115       0.02847190
Ar       5.29893146       8.84185951       3.48282015       0.07637406       0.07079339       0.08691280
Ar       4.30345967       2.74143036       6.03707948      -0.02861947       0.10421054      -0.04866833
Ar       2.83290298       6.57174647      10.45049226      -0.05184036       0.00036521      -0.07129919
Ar       4.38954915       2.96551628       2.35686101      -0.06565444      -0.02503007       0.04679397
Ar       1.15578996       4.16629680       0.64895729       0.00563633       0.02988503      -0.09842950
Ar      10.11727497       5.87873287       1.90358284       0.00626241       0.06663124       0.00593826
Ar       6.54553522       5.19145229      12.99165768      -0.02279902      -0.00874896       0.01773780
Ar       1.67181702       9.55063954       5.66783025      -0.00455270       0.03043333      -0.04911757
Ar      12.99816998      16.95108544       3.39381884      -0.00029260      -0.12491853      -0.01208923
Ar       6.41757526      15.21508856       8.04408632       0.06384508      -0.01190682      -0.03514506
Ar       1.93490989      15.21374740      11.18710375      -0.06655504      -0.01629024       0.05643055
Ar       3.44976245       7.63814023       0.95177042       0.09387534      -0.00115573       0.01112938
Ar      11.62814780       2.68924413       1.96630928       0.03809129       0.10407913      -0.03648110
Ar       6.86150119       1.93898120      14.61086633      -0.00076141      -0.02316963       0.07487836
Ar       8.13663892       3.08889198       0.90499274      -0.06088830      -0.11698105      -0.06134251
Ar      11.60968639      15.34553601      12.93824654      -0.06358495      -0.00593099      -0.05730552
Ar       0.12995324      12.61955231       6.66471397      -0.05405048       0.02244572       0.01880094
Ar       6.66111537      15.86305850      11.80208983       0.00930853      -0.03931112      -0.03291888
Ar       3.92970441       4.56509553      15.50659200      -0.05647821       0.01407544       0.05379996
Ar      14.11362395      16.89893873      15.39395186      -0.02595552      -0.09411338      -0.02965564
Ar       7.56511526       8.89520323       6.45511258      -0.06011101      -0.00290317      -0.00345350
Ar      12.89403728       5.73263887       8.53069805      -0.00785433      -0.08642437       0.02916580
Ar      15.09753166       5.10577134       0.35916631      -0.09056211      -0.04137408       0.02751177
Ar      10.26563827       8.57118871      16.61291505      -0.07557216      -0.03573685       0.01185748
Ar       1.17971347       6.38762259       7.26636055       0.00932021      -0.07222620      -0.09716147
Ar       9.70510355       1.23758969      12.43490135      -0.03165847       0.01675656       0.00242438
Ar       7.63645786       1.12551327       8.31202112      -0.05806259       0.05711556      -0.11133690
Ar      17.07370689       1.50582149      10.11087410       0.04174517       0.05905636      -0.02372976
Ar      16.80044597       5.38933897       3.61993450       0.01216052       0.06556512      -0.07290141
Ar      10.87385623      13.35542363       3.43577630       0.04093517       0.07521489       0.06569389
Ar       3.17842626      17.22146484       8.50627399       0.06636210       0.01894279       0.07685370
Ar      10.11141786      12.37447240      14.50784408      -0.03254382       0.07105321       0.04976845
Ar      11.26976589       8.90399905       3.74619978       0.00084579       0.02095054       0.01541703
Ar       0.39099936       0.41138911      17.01118503       0.00731552      -0.07174031      -0.01086056
Ar       4.73918329       8.65497334      13.55032110      -0.09722231      -0.05777773      -0.00142879
Ar       0.93826924       7.09923150      15.77293177       0.02774687       0.04403706       0.11131277
Ar       3.40357623      14.93824984      14.85336378       0.07325238       0.07509633      -0.14037689
Ar       5.66417353       1.89734504      11.42409462       0.07016703      -0.02058799      -0.04569696
Ar      13.27169811       3.52428611      11.77160264      -0.03405877      -0.02469008       0.00574000
Ar       2.17494092       0.96579756      13.86981119       0.06848370       0.00977175      -0.05920056
Ar       6.65644439       5.56749244       3.94581011      -0.02898313      -0.01409244      -0.01248294
Ar      12.46611696      10.63643449       7.93562502       0.02773735       0.03478226       0.03552792
Ar       5.40067862      11.89107676       0.10467727      -0.01932779      -0.00631773       0.01776032
Ar       3.60724680       9.55905384       8.64562944       0.15478632      -0.01762274       0.08311295
Ar       2.19651543      10.56706337      16.44177712       0.01283128      -0.05170394      -0.04833010
Ar       4.32273885       0.96247788      16.93411706      -0.02434178      -0.10541234      -0.01399039
Ar      14.75413532       8.16405286       6.33123191       0.02273264      -0.15769565      -0.06277869
Ar      10.06734074       8.03946394       9.10652145      -0.05918423       0.10279096      -0.04722875
Ar      13.09866434      12.33920033      11.65038626       0.01536054       0.05192531      -0.01850674
Ar       2.11967884       0.18451553       2.87296168      -0.01251770       0.11843495      -0.08078730
Ar       3.16118586       5.66449463       4.81899716      -0.01910648       0.01112395       0.05119672
Ar      15.52705043       2.26732713       2.54338281       0.05029044       0.04836488       0.00411160
Ar      16.37875017       5.87769847      10.06889510       0.02793960      -0.00276227      -0.05506498
Ar       6.65766770      12.35224263      10.27143204      -0.07339143      -0.05053340       0.00573020
Ar       4.56876488      15.14746610       1.27204963       0.00135440       0.04547322       0.04263512
Ar      10.14187934      16.79342559       5.94550094      -0.01989414       0.00009407       0.02633413
Ar       8.18483719      16.31084373       2.44154654      -0.11106047       0.07887752       0.01029413
Ar      13.82801224      12.85846451      15.36908081      -0.00609758      -0.09956452       0.10555127
Ar       5.43331648      16.77104586       5.14765137       0.02802641      -0.06300992       0.06077277
Ar       8.72901202       4.13639461      10.50915407      -0.13802769       0.00331377       0.01670482
Ar      13.82069681       8.57829003      10.65839316      -0.02360622       0.08832748       0.00078589
Ar      13.00941951      14.20291390       7.49394805      -0.10405926      -0.09573562      -0.03232440
Ar       8.80452983       2.46307460       4.56044068      -0.00343612       0.10079251       0.08149450
Ar       9.75351989      14.45670492       9.53852364       0.09550619      -0.04732594      -0.00018908
Ar       7.20543308      13.05557094       3.67674919      -0.02542792       0.06188107       0.05511755
Ar      17.02718503      14.95945360      14.20721994       0.00184872      -0.05928504      -0.06698843
Ar      16.44235909      11.66052188       2.49222055      -0.00897686       0.04410110       0.03852461
Ar      16.38654679      14.69003569       3.93027288       0.01923488      -0.01281767       0.08492662
Ar      14.36759881      14.94013290       0.96039922      -0.02110231      -0.08047872       0.00576588
Ar       1.02575435       2.16922943       5.90103577       0.12133759      -0.03863716       0.01525195
Ar       9.86466858      11.07733521      11.18966682      -0.00727050       0.01193550      -0.03769484
Ar      16.36951397      11.45566382      12.80209866       0.02483458       0.05538473      -0.00312911
Ar       8.33547140      10.39264704       1.68565558       0.00182322      -0.05202184       0.05198086
Ar       3.41196421      12.08073919      12.78896035      -0.01084459       0.03937859       0.00153615
Ar      14.67898891       6.51646657      14.05660514       0.07012575      -0.00645120       0.00519381
Ar       2.45793848      14.82350670       5.05824535      -0.11206117       0.00048059       0.04234651
Ar       8.75826214       8.45969649      13.64026488      -0.00762193      -0.03821807      -0.00010228
Ar       7.53707719      15.74379005      15.15850918       0.11543314       0.04130970       0.09159590
Ar      11.69352483       3.94272336      14.87769410      -0.06455342       0.01052634      -0.01403029
Ar      11.84709502      11.46286617       0.44533641      -0.02615452      -0.03945565       0.00332570
Ar      17.20982378      16.51730073       7.50570270       0.03251223       0.10576193      -0.01639193
Ar      14.26644850       0.54627953       6.95825352       0.01208484      -0.00075370       0.03224174
Ar       0.85606974       5.07608915      12.84282784       0.02771032       0.02673504      -0.02794754
Ar      11.29675076       2.64169609       7.17562845       0.00156183       0.02856843      -0.04415582
Ar      16.65892415      10.36298953       8.98226889      -0.04441365      -0.07476240      -0.07666947
Ar       1.37334536       8.88293491      12.51754083       0.04710705       0.01876507      -0.08531237
Ar      10.73022528      14.70576035      17.03402393       0.02108791       0.11872763       0.01090576
Ar       1.07162433      13.48685405       0.38463472       0.09487330      -0.00668574      -0.05711343
Ar      12.08840370       0.03516429       9.70779016       0.03333319       0.04631381      -0.04886769
Ar      10.83358667       0.77376879      16.20102524       0.08417018       0.04108942       0.00889876
Ar      11.22584117       6.79776715      12.15747886      -0.06537245      -0.01041631       0.03207733
Ar       6.87803543      12.15243837      14.18800746      -0.04310420       0.01748826       0.04399633
Ar      12.65943920       9.46260554      14.29916933       0.02606256       0.05327716      -0.04129869
Ar      13.76266990      11.65445322       4.76964312      -0.00740016       0.06516780       0.03022869
Ar      15.91251256      10.25507544      16.26086969      -0.04958257      -0.04536289       0.05503949
Ar      14.53977156       8.46244902       2.46567098       0.00432296       0.06869434      -0.03528259
