108
Lattice="17.35 0.0 0.0 0.0 17.35 0.0 0.0 0.0 17.35" Properties=species:S:1:pos:R:3:momenta:R:3 pbc="T T T"
Ar      16.12483565       9.33729861       3.56645175       0.02852089      -0.06212541      -0.03178168
Ar       4.95978161       3.69596000       9.97664566       0.04077813      -0.11690304       0.04108406
Ar       7.48571224       1.74562092       6.15374171       0.06384211       0.06372903      -0.01266125
Ar       0.71041156       1.76899266       6.55707831      -0.09142750      -0.01975715      -0.02932515
Ar       7.79626000       3.23925789      12.84454235       0.03263721      -0.02425851       0.05786596
Ar       8.29225784      11.18106952      13.98842407       0.01618514       0.05567956       0.02158314
Ar      16.20712323       1.59988777       0.04701240       0.00798501       0.00566329      -0.02069185
Ar      14.43062533       1.85197754       8.22765037      -0.00013293      -0.04187546       0.01772067
Ar      10.02503059       8.08545541       8.12799097       0.08107241       0.00550211       0.00732988
Ar      16.48954673       5.22135344       4.69433733       0.07974072      -0.01492662      -0.01171996
Ar       1.01068284      12.32958837       9.89668182      -0.01325885       0.05632888      -0.03919825
Ar      16.41176043      15.64991041       8.32639407      -0.02514667       0.03785954      -0.10762994
Ar       6.34687626       8.63124435       5.89162020       0.05103600       0.06619583      -0.02087418
Ar       2.03487785       8.21081627       5.46707242      -0.05971203       0.08305912      -0.06416465
Ar       6.81561802       6.73697757      11.90356342      -0.15011642       0.09964819      -0.01072552
Ar      10.42541032       5.50167607       1.14088150      -0.04247461       0.02073290       0.08412203
Ar      16.31812505      14.89082799       5.09685368      -0.01465892       0.12171591      -0.08901838
Ar      12.83490676       8.59619289       4.77265773       0.05237810       0.03629830       0.06481838
Ar       6.93268160       5.77860445       7.59325057      -0.01680079      -0.00644836      -0.05433048
Ar      13.84093002      13.04480001       2.75462824       0.04410959       0.03620568       0.01209170
Ar      10.51305178       0.43976398       3.77657425      -0.02972057       0.08688933      -0.08279034
Ar       6.28897596      10.01651256      10.23811907       0.05544936       0.03810261       0.07381989
Ar      16.77461588      12.54856685      15.31183269      -0.06727909       0.04110536      -0.02707978
Ar       9.57559411       6.23265857       4.55796452       0.00794703       0.00086405      -0.01659722
Ar      10.71819382       3.73986524      15.01732816       0.00470310      -0.00243652      -0.08268161
Ar       4.54071583       3.92613656      13.94894352       0.01562519       0.03613254      -0.01180502
Ar       7.60137050       1.36472250      16.16823772       0.00962780       0.10137620       0.05813997
Ar       7.82221457      11.92274370       0.76786911      -0.01269360       0.03152809       0.03570297
Ar      12.64403000      13.99529773       9.54394421      -0.02583322       0.02300015      -0.03604537
Ar       7.99974132      14.18759561      10.56441673      -0.10384019       0.00631353       0.06040877
Ar       6.95249101       6.36542412      16.47519434       0.02707067      -0.03085072      -0.05519115
Ar      13.87513807      14.54540909      15.37445591       0.00863906       0.03611308      -0.00405766
Ar       7.51483949      12.14656859       7.35210715       0.06119765       0.01144785       0.03925739
Ar      12.47975202       5.35522714       8.74499922      -0.05757272      -0.02301366      -0.00847679
Ar      13.33715729       5.88098744      16.40643704       0.00409417       0.01091400       0.07218085
Ar      10.17662639       7.05337743      15.46582881       0.04269736      -0.03533076       0.01514914
Ar      16.87919845       6.72572247       1.16217573      -0.00974327       0.02510645      -0.01374971
Ar      12.21196326       3.06170499      11.31284421       0.08250969      -0.00819720      -0.00416926
Ar      10.60469747       0.41450290       9.07252789      -0.00348256      -0.02563358      -0.08086934
Ar       1.62200893       0.42470700       9.65307594      -0.04752660      -0.05692256      -0.03494126
Ar       1.58408597       3.42152972       2.02653625       0.02307610      -0.05802886      -0.05994697
Ar       7.40503348      16.00542039       1.28254130       0.00454256       0.04644587       0.07092826
Ar       4.03450683      14.11213557       9.91330254      -0.02250627      -0.05119331      -0.01518249
Ar       4.24342801       7.11381341       3.09348927      -0.13028792       0.03890472       0.02122923
Ar      15.86736085       8.06538219       6.91721936       0.05224141      -0.00044946       0.04950193
Ar      13.46279441      16.52234651       2.45977229      -0.06127317      -0.04567966       0.05402555
Ar       3.35952966       7.90901139      13.19238753      -0.06459241      -0.10351197       0.06916823
Ar       2.94973117       6.44885685      16.77700463       0.03917417       0.01235161      -0.02041995
Ar       2.47153149      13.92962694      13.02843960       0.05032541      -0.01415540      -0.04719020
Ar       7.29434368       1.15048774       9.85421292      -0.08570165      -0.00621681      -0.00007283
Ar      16.69705579       8.60362086      11.32295611       0.07357474      -0.00873321      -0.03369307
Ar       1.44869872       1.24308753      13.40836285      -0.04610560       0.06965092      -0.09204267
Ar       3.00158740       4.56670891       5.42705859      -0.06477999      -0.09893157       0.01811028
Ar      13.55788996       9.96363154       9.41968139       0.00094992      -0.05945490      -0.01863690
Ar       3.53401286      14.86163574       2.44562345       0.08215580       0.03115876       0.01040611
Ar       3.55892665       7.26910169       8.70711042      -0.00695233      -0.01597877      -0.03649831
Ar       1.37671264      11.31623366       0.75405768       0.00214272      -0.00398976       0.10109643
Ar      16.46076712      14.70810664      12.08974376       0.00528139       0.03782389      -0.01495261
Ar      16.17013938       3.83035354      14.73796600       0.12364142       0.03452205       0.08692781
Ar      11.24740324      11.70657020       7.00317727      -0.04270831       0.04404504       0.05453680
Ar      14.62324937      11.59547747      12.48509872      -0.08275355      -0.00637485       0.01452486
Ar       4.20630063       0.92607040       7.41547838      -0.06528374      -0.05976040      -0.00977357
Ar       0.06322594       0.37195056       3.23924671       0.03539207      -0.12626612      -0.01976416
Ar      14.69243541       1.71438663       4.72798395      -0.09584378      -0.00042528      -0.04045263
Ar       1.60150884       4.71300759      10.86899320      -0.02284020       0.00373601       0.03921145
Ar       9.48278150      14.60579722       5.65589109       0.06943209      -0.07459045       0.05779525
Ar       3.55982843       1.10320614       3.98278095       0.07242156       0.03938480      -0.02723811
Ar       8.45333181       3.22222271       3.07846263      -0.05236715       0.08885228       0.01666344
Ar       4.21942898      15.48556692      16.37827138      -0.00717293      -0.02631522      -0.04130249
Ar      14.31075798      10.78080162      17.30671421       0.04136893       0.00022423       0.07142378
Ar       5.28925880       3.83313374       2.14985894       0.00634856       0.05087464       0.02408374
Ar      11.07673275       2.60367748       6.43432808      -0.04447976      -0.07412372       0.05298121
Ar      12.38215335       9.26399371      14.64417793      -0.03401749       0.05154159      -0.01573271
Ar      13.05113669      16.20715625       6.22073092       0.00077062       0.06253570      -0.10698102
Ar      11.71446234       2.16473181       0.95397780       0.06833587      -0.06216787      -0.04867121
Ar      13.06824444      16.93875306      11.37088627      -0.00858659      -0.07543412      -0.03392990
Ar       6.82609480      13.53139251       3.57852003       0.03742282      -0.07407529       0.06079913
Ar       5.08290146      12.31172418      14.02451288      -0.00835866       0.02272476      -0.07517425
Ar       0.02979065      16.10976780      15.24077925       0.00611702       0.11302945       0.07046527
Ar      10.33840539      14.27652414       2.03986460      -0.10004854      -0.04555649      -0.04718263
Ar      16.37485958      14.96727158       1.18740411       0.10962865       0.00369955       0.09799491
Ar      15.88382930       4.79838553       9.31790021       0.05514570       0.04426441      -0.07856135
Ar       9.85756023      10.92287166      10.61895786      -0.03780604       0.01403568      -0.06834962
Ar      16.74505181       8.33868641      14.97467090      -0.00036672       0.05720639      -0.04369078
Ar       9.52205040      10.86287246       3.84785610      -0.00064288      -0.00086822       0.04114539
Ar       7.50928412      14.92862242      14.99104909      -0.00653792      -0.02468673       0.01407920
Ar      13.69249672       6.21206458      12.86726583       0.03180515      -0.15913971       0.06739514
Ar       1.14773851      12.03325282       4.12587434      -0.01922595      -0.04571316      -0.08574172
Ar       7.52353333       8.45928963       2.22581217      -0.00785114      -0.01261683       0.01015548
Ar       5.31972964      16.64482683      12.83120398      -0.02170523      -0.02743969       0.08060216
Ar       9.33473336       4.13468752       9.43547659      -0.02016945      -0.13813048       0.00264983
Ar      10.64723164      12.65980551      16.17166791      -0.06393928      -0.09604208       0.06716838
Ar       5.79581826      15.05734809       6.90324770       0.04113947      -0.02091103      -0.01134119
Ar       2.19075777      15.12360048       6.78986216      -0.06416870      -0.01896462      -0.07194857
Ar      13.27579049       1.06838299      14.98928779      -0.05244490       0.03825171       0.01006970
Ar      12.95446593       5.18739127       4.99020786       0.14673578       0.11565761       0.05638027
Ar       4.04474520      11.49569238       6.96825025      -0.00534996       0.06449135      -0.00455010
Ar       5.18086242      10.06349938      16.51625694       0.04233895       0.10642857       0.04681868
Ar       4.56827234      10.55748014       3.03771688       0.04970704       0.02345721       0.02087054
Ar       2.47792231       1.36913635      16.59990800      -0.04619224       0.01424365       0.07663083
Ar      16.01302722       2.11311546      11.60330372       0.02156032      -0.09466972       0.11774529
Ar      10.82544475      16.44954495      16.42948792      -0.03430906       0.03071472       0.00977944
Ar      10.58978824       7.50506091      11.67359362       0.02878905      -0.14130061      -0.01168481
Ar       9.64729822       0.05057074      13.53666374       0.03527621      -0.05879981      -0.07717683
Ar      11.22935324      14.01863108      12.98527042      -0.03172766      -0.01446333      -0.02777309
Ar      14.93023166      12.38924621       7.15732941      -0.01007230       0.02900652      -0.07975658
Ar      14.67801988       3.76526342       2.06279012       0.07615158      -0.07850399      -0.02824873
Ar      11.38849161       8.90793477       1.29421187      -0.01024942       0.06556778       0.01959903
