108
Lattice="17.35 0.0 0.0 0.0 17.35 0.0 0.0 0.0 17.35" Properties=species:S:1:pos:R:3:momenta:R:3 pbc="T T T"
Ar       0.21944067      11.64554861       1.21806602       0.03838063       0.04802960       0.04568312
Ar       1.90827299      16.97872672      10.49810072       0.02357868      -0.01603272      -0.04208079
Ar       2.31185953      13.06278915       9.04872649      -0.00826458      -0.05486854      -0.07856171
Ar      13.75692796       1.50133253       6.66634771      -0.04448783       0.08610961       0.05845860
Ar       2.20530670       1.68242467      14.25931578       0.14276446      -0.01696467      -0.05501297
Ar      11.67225574       9.69828620      13.23051309      -0.01525916       0.01948495      -0.01598908
Ar      14.88499045       4.04912933       1.49263120       0.01148835       0.06635355      -0.15864264
Ar      13.21328326       1.11693968      10.57609446       0.14144421      -0.00370150      -0.05314893
Ar       8.46815409       5.64703424      11.43367061       0.00384426      -0.05338232      -0.04035285
Ar      16.78346765       4.03199990       5.90331358      -0.05115184       0.03013811       0.04776593
Ar       1.27005803      11.86744154       6.14654122       0.10774070       0.01896183       0.03761115
Ar      16.62802781      15.77466473       6.85659385       0.01738855      -0.01158633       0.03199414
Ar       4.69420120      10.34231344       8.20913457      -0.02793890       0.04206890       0.06846933
Ar       1.66074528       8.83889880       4.13579518      -0.00062395       0.01014554       0.02007654
Ar       5.08929023       4.62061321       9.83662424      -0.00519021      -0.01068708      -0.00509678
Ar       9.17052271       6.79511333       0.99675983       0.01928152      -0.06839112       0.03109192
Ar      13.23780221       1.27938750       2.73597672       0.00768824      -0.04106704       0.02429683
Ar      15.93756347      16.81350581       1.29391427      -0.01952614       0.02397136      -0.05096117
Ar       5.70630669       5.73397152       3.26261417      -0.02651518       0.01989315       0.14322979
Ar      12.45642026      11.51417140       1.80377483       0.03359600       0.01203920      -0.05059932
Ar      10.44987478       1.82845602       5.06516901       0.05088081       0.03088728      -0.07647623
Ar       8.20994309      11.09676452       7.37845658      -0.01484213       0.04132328       0.01259249
Ar       5.60867882       7.51281307      11.75743562      -0.01435043       0.00097143      -0.06075450
Ar       7.21981306       7.72452063       8.29808031      -0.00128147       0.01837875       0.05573224
Ar       8.60666733       3.28696680      16.26914747      -0.00640257      -0.11561957       0.08812342
Ar       2.74155641       4.31357316      17.04341559      -0.13238761       0.01494396       0.07689802
Ar      10.22987578       0.11901387       1.52547982       0.13797136       0.06942102       0.00209551
Ar      12.66086645       7.45295472       1.33205976       0.09994741      -0.03058293       0.07904541
Ar      13.39371423      15.00275240       8.31731913       0.02584441       0.02452436      -0.00537828
Ar      11.40049589      12.22425320      10.58679030       0.08024060      -0.02955546       0.05502897
Ar       2.42051113       2.59804656       7.00734105       0.07095159      -0.10399506      -0.02972610
Ar      12.87087174      15.05984355       0.71174320       0.02706838       0.08392836      -0.00715187
Ar       5.75326610      10.76714793       4.60761689       0.00908022       0.10010685      -0.09009654
Ar      12.14684482       5.30505645      12.26213384       0.00684806      -0.03098011      -0.05180325
Ar       1.85353883       7.33312237      14.53824182      -0.06454189      -0.07008579      -0.00036454
Ar       8.64676555       7.48321190      14.39812192      -0.04271120      -0.03603027       0.03007319
Ar       1.90588758       8.00080704      11.22202873      -0.00875537       0.01986332       0.05890609
Ar      10.09734310       2.34632251      12.81674119       0.06428230      -0.02362620       0.10861318
Ar      10.74852556       0.51872967       8.38492676      -0.00072589       0.07623791       0.00752293
Ar      15.63112641      15.80681323      10.81699241       0.06518024       0.03252425      -0.00561467
Ar       3.07775107       0.80704392       0.82051246      -0.11821095      -0.07354639      -0.07221785
Ar       4.43758989      15.56351137      14.17666933       0.01019821       0.02165469      -0.09347337
Ar       7.10490554      15.33727460      11.69616624      -0.00486621      -0.02923993       0.03915252
Ar       1.18109586       5.68543014       2.77557948      -0.01953454      -0.05212252       0.07920466
Ar       0.07247297      10.71087709       9.87646287      -0.02253900      -0.07931362       0.04401465
Ar      14.88877957      14.17849531       3.57306539      -0.00587861      -0.06121170      -0.09824308
Ar       8.34522553      10.19737603      11.69405140       0.04429716       0.00248998      -0.04334217
Ar       5.10212434       5.22627447      14.26147605      -0.10836404       0.09035364      -0.00024953
Ar       1.47657895      13.52031027      13.12473374       0.01565426      -0.01187296       0.06131850
Ar       4.87862962       1.06160722       9.66532967       0.08503557      -0.00734377      -0.03546230
Ar       5.00613740      11.95778714      11.86378403      -0.03107355      -0.04293278      -0.02748573
Ar      15.72422544       5.82286611      15.23777012      -0.14140879       0.02635649       0.01883877
Ar       5.78781939       9.36646575      14.78159491      -0.03630195       0.04488344       0.00436884
Ar      15.15142108       7.67500114      11.83690018       0.10506613      -0.00607819       0.08313489
Ar       4.69601564      15.88764437       3.25720517       0.01259247       0.03105277       0.02704187
Ar       4.27334364       5.89831606       6.52453689      -0.06679847      -0.02609887       0.01549925
Ar       3.46342891      11.71541241      15.29685769      -0.02431607       0.02435777       0.03488082
Ar      14.03082996       0.47870821      13.83735910      -0.06296380       0.02931946      -0.05488138
Ar      16.76373708       2.12244103      16.38073823      -0.00034875       0.11349316      -0.14385451
Ar      12.03410650      12.48573977       5.67558341      -0.00810028       0.02871462      -0.10079275
Ar      14.61232043      11.30395452       8.23418129      -0.17002176       0.01059235      -0.00900538
Ar      14.55386392       5.88840095       8.80244349      -0.14976278       0.08425211      -0.01488136
Ar      16.78475436       1.91509475       9.02560655       0.02990248      -0.03493218       0.06052216
Ar      12.78708739       4.83864029       5.09842227      -0.03606008       0.05403662       0.02128050
Ar       1.13048806       5.76862530       8.51954868      -0.00388858      -0.06660221      -0.10355690
Ar       9.63362116      14.33871976       8.20513518      -0.04466108       0.01754724       0.02432565
Ar       3.87115116       2.06164435       3.87800651       0.06096195      -0.02759608       0.00482118
Ar       6.54155839      16.86899288       6.30517035       0.00607909      -0.00965054      -0.10159083
Ar       5.54778489      13.91712575       0.27916381      -0.03975878      -0.07423059       0.01831320
Ar      14.30166945       9.63272865      16.01824047       0.05161270      -0.03807718      -0.05253027
Ar       7.09603303       1.50045351       3.15751384      -0.05340047       0.00525788       0.01906713
Ar      10.95351283       4.16943803       8.10085378      -0.01333743       0.01082174      -0.06021271
Ar      14.78070272      12.03467202      12.31696420       0.10051761       0.01158231      -0.00226517
Ar      11.81007341      15.94068688       4.74217720       0.01015053      -0.03414420       0.10196533
Ar      10.74818408       3.64204125       1.93032192       0.06113502      -0.00202734       0.08238730
Ar      15.24417766       3.62408135      12.07536093       0.09434938       0.03503810      -0.04873383
Ar       6.71507499      10.48561531       1.02927492       0.00097223       0.03063198       0.04386367
Ar      11.62620354      13.56023647      14.56230125       0.07842690       0.06920874       0.08983026
Ar       1.78656217      14.45579896      17.33718754      -0.03724268      -0.02749289      -0.04954079
Ar       8.39304113      14.18764612       4.29827942      -0.04059884       0.00286732       0.04522230
Ar      15.67981149      13.50667266      16.24587896      -0.05869866      -0.05633527       0.03933903
Ar      10.66123998       7.59291809       9.41191327      -0.06221894      -0.06202515       0.04579017
Ar       8.05868947       2.88113759       9.51874691       0.02621237       0.01884898       0.03981170
Ar      17.12651265       8.03874806       0.37065521       0.07052592      -0.05210707       0.01058728
Ar       9.35112852      10.35757456       3.86022547       0.00627878      -0.04899677      -0.11795875
Ar       7.09204025      12.82180758      14.68454501      -0.03587989      -0.00309256       0.06330804
Ar       1.00902140       4.81472139      12.14790115       0.05423388      -0.01179782       0.09952116
Ar       1.07714836      14.79780511       3.94947820       0.00521139       0.04977082       0.11803669
Ar       9.33932423       6.60977211       5.21646523      -0.00068871       0.06466447       0.02891894
Ar       6.65022112      17.00245419      17.02954242      -0.06857626       0.10157531       0.03266690
Ar       7.28169266       3.63210623       5.93509854       0.04074510      -0.04922185      -0.00350431
Ar       8.99311390      14.19559006       0.46381671      -0.00609147      -0.01292280      -0.02740855
Ar       3.70520785       8.17003230       0.57914841       0.02011418      -0.02115032      -0.02866663
Ar       2.74024001      16.37259458       6.58311394      -0.03086513      -0.07643362      -0.05819516
Ar      12.39236700       1.99529417      16.55361975      -0.05473739       0.08129382      -0.01390744
Ar      17.18318029       8.81166237       7.24863921      -0.01900591      -0.06718172      -0.01057237
Ar       6.13810127      13.59566385       8.24250735       0.02974585      -0.10230360       0.00157195
Ar      10.09206644      10.71369513      16.96835617       0.01002774       0.03357401      -0.05473762
Ar       3.37392502      12.25755786       2.56329099      -0.08418083       0.00750929      -0.01713138
Ar      16.77458557       1.04578939       4.50138035      -0.08155592      -0.03979810       0.00353241
Ar       0.04385399      16.40656969      14.69995311      -0.05119696      -0.07696796      -0.02689589
Ar      10.12449560      17.02151006      15.16003196       0.01184111      -0.03287583      -0.05355819
Ar      11.72425330       5.46095806      15.87165195       0.07403599       0.09906282      -0.07828458
Ar       6.53713935       1.42313772      13.81060328      -0.06692046      -0.01828281       0.00846959
Ar      11.52821153      15.76506208      11.71809985      -0.01211912       0.06691861      -0.04698266
Ar      15.19277840      10.91530814       4.79566906       0.12629097      -0.01379724      -0.02533030
Ar      15.45918555       7.22880627       4.36499471      -0.02148383      -0.01215604      -0.02618818
Ar      12.45710514       8.69295445       5.67047644      -0.04909259       0.02108004       0.08553803
