108
Lattice="17.35 0.0 0.0 0.0 17.35 0.0 0.0 0.0 17.35" Properties=species:S:1:pos:R:3:momenta:R:3 pbc="T T T"
Ar       9.48928721      12.73714068       1.99661688       0.03925315       0.05412298       0.02188928
Ar       8.17005283       9.88442384       9.70619266      -0.06530961       0.00141031      -0.07964485
Ar      11.32779994       2.98626340       3.97230362       0.02287450      -0.04242676       0.03132588
Ar       0.22505520       6.77587823       4.52907839      -0.05121969       0.01837665       0.03015371
Ar       5.22950084       5.92545668       9.90059800       0.10078540       0.02960009       0.00369093
Ar       5.62351840      12.06279867       3.20133579       0.00400292      -0.01942840      -0.02376052
Ar      13.05537881       4.82889822       6.38308061       0.00926008       0.02669843      -0.02910878
Ar       9.20830154      10.32437370       4.97991375       0.02115005      -0.00593691      -0.06755899
Ar      10.52473369      15.85165917      12.50222382       0.15418989      -0.03288295       0.08729314
Ar      13.61400173       2.35367752       1.11951405      -0.05308730       0.03478133      -0.02125717
Ar       2.73429891       7.99090940      12.21833050       0.03144221      -0.06308617      -0.07638720
Ar       3.17379944       2.29564409       7.03601576       0.00064587       0.07736478      -0.03146506
Ar       9.36256519       4.29957494       1.43740761       0.04987615      -0.09422662      -0.04435215
Ar      10.33672206      13.47490706      15.24427340      -0.07530965       0.00652208      -0.01566342
Ar       3.37588736      13.36969649       0.72604338       0.02000095      -0.00983899      -0.00582043
Ar       3.79860608       5.49452217       5.97403439      -0.01167162       0.01700611       0.02415608
Ar      13.21272139       9.03287592       6.10307028       0.03383455      -0.01307625       0.02747194
Ar      13.12318946      13.08199043       0.50527066       0.09079864       0.08449047       0.04322458
Ar       9.42508718       1.55340578       6.88311301      -0.05514615       0.07681737      -0.02036704
Ar       3.23051533       6.09128539      15.55601903      -0.03403833      -0.02337746      -0.04952688
Ar      14.44540514       6.24897878       2.05235952       0.00777065       0.04142983      -0.07729675
Ar       0.19894333       0.81872327      10.19681346       0.10040858      -0.02621087       0.00283178
Ar       7.35838765       5.87436422       3.87453543      -0.04046799       0.05478845       0.08276622
Ar       6.46165169       6.39510635       0.00985156      -0.03705881       0.05006063      -0.03081547
Ar       0.21536259       4.03999345       1.46317955      -0.03669520       0.00731756       0.01515764
Ar       5.32607532      17.13480075       0.87647175      -0.03165594       0.04016647      -0.02471825
Ar       5.14942424       3.78743989      12.70784234       0.05598929       0.02516569      -0.09095245
Ar      13.50730521       0.68921727      11.04706555      -0.02578294      -0.05248901       0.00379244
Ar       4.50678344      11.15684377      11.67106232       0.02452214       0.05817231      -0.00007147
Ar      15.78588686      14.84341672       4.69174612      -0.03161820       0.00427738       0.04020128
Ar       3.13213681       2.87320012       3.20201868      -0.09448479       0.03264501       0.05823816
Ar       7.17707195       4.37183041       7.47119554      -0.01724211      -0.07354760      -0.01786217
Ar      16.60028722       7.90667192       7.63621388      -0.00756718      -0.01721055      -0.05892567
Ar       6.59182215      13.13113718       9.69325253       0.01130848      -0.04648732       0.03791861
Ar       1.55339839      16.54629301      16.14014971      -0.04024389       0.10225757       0.06264906
Ar      14.01653513       5.05143127      15.68750780       0.06769815      -0.01180818      -0.05094766
Ar       0.65011575       4.02550668      14.28900994       0.12030625       0.00040080       0.07462638
Ar       3.56299502      16.62040199       4.29607658      -0.01019141      -0.02011503       0.04807739
Ar       2.27140553       0.77570713      13.12942357      -0.08434512       0.06970045       0.01032852
Ar      15.78043761      15.16546623       8.27769351      -0.03134871       0.08679441       0.02875270
Ar       5.20733276       9.03821677       8.05652077      -0.00220441       0.00985902      -0.01876387
Ar      12.06219598       5.71432939      12.59473797      -0.00286238       0.00779028       0.01153152
Ar      16.62478763       7.26041166      13.17237977       0.01207741      -0.07351670       0.02002441
Ar       3.37623961       6.69489915       1.84419885       0.05957184      -0.12996305       0.03791531
Ar       3.23979447       2.38628325      16.81028936      -0.02559489      -0.03376903      -0.02319750
Ar       0.97914345       9.79184661      14.98435764      -0.09857749      -0.08041660      -0.09854554
Ar       4.09709866      13.38486998      14.55041333      -0.03824244      -0.01211461       0.00349414
Ar       0.27717186       0.70409176       6.07895015       0.03521763       0.05526288       0.11802852
Ar      12.44580998      17.09802911      14.73886199      -0.02940374       0.03312628       0.04558111
Ar       1.55846508       4.97941072      10.46207907       0.03110090       0.00362586       0.05183995
Ar       9.34336406       6.09040371      14.72207729      -0.01005981      -0.07553843       0.03432727
Ar       8.01369622       7.64059824       7.00625348       0.00243286      -0.01436132      -0.03666639
Ar      12.71377864      16.92470634       3.58045992       0.09491944      -0.01717789       0.02822155
Ar       5.93589540       1.64151925       9.28566974      -0.04605389      -0.06365895       0.01366373
Ar       1.42084675      13.58810044       7.40727066      -0.00910548      -0.03940534      -0.06559157
Ar      12.29090922      15.42441396       7.67691700       0.01049812       0.04771626       0.05158989
Ar       1.21670186      10.05324882       1.46372488       0.04245323      -0.11774084       0.06456966
Ar      12.65893264      10.10387384       2.30057797       0.04199244       0.08577176      -0.09838834
Ar      11.09416829       7.40955138       0.30315567       0.00166524       0.02353372      -0.05016873
Ar      10.24713933      12.80077915       9.93778961       0.09043697       0.00061236       0.00853002
Ar       0.43976724       0.60027974       2.26518760       0.00631080      -0.02299212      -0.06126294
Ar      13.59522638      13.78096752      10.87218795      -0.04478785       0.04244444       0.09055604
Ar      10.17647341       0.69070934      17.27033984      -0.03159534      -0.01505277       0.08448362
Ar      10.89274307       6.96978644       3.91224503       0.00161651      -0.01620941      -0.02143353
Ar      15.79212891       9.72995832       3.50585899      -0.00639902       0.07087395      -0.06671793
Ar       2.05138838      12.82638275       4.14567874      -0.07633382       0.00644387      -0.00386035
Ar       4.90772284       9.36779686      16.25929483       0.06287109      -0.09215304      -0.05034025
Ar      11.33432432       7.49746918       9.14695333      -0.06523858      -0.06838522       0.10778918
Ar      15.59377964       3.27066398       4.19649918       0.04810832       0.03748234      -0.00279569
Ar       5.10525726      15.91942451      12.42746576       0.01112080      -0.10111285      -0.04703404
Ar       6.55429542       1.38486269       4.95873348       0.02186660       0.13350453      -0.08252015
Ar      14.54632671       5.85626410       9.67310114      -0.07367483       0.05803556       0.02583336
Ar      15.53303339      10.66053919      16.97700342       0.04421633      -0.01939889       0.02987984
Ar      16.79963453       4.17986320       7.48462068      -0.00561853      -0.02694290       0.01453078
Ar       5.37293573       8.48887970       4.39554173      -0.05459972      -0.09224723      -0.00182309
Ar      14.15067851       9.60086737      10.64751535      -0.05083826       0.00931020      -0.01139406
Ar      11.24695721       3.16464399      15.27825240       0.06965950       0.05606610      -0.09534134
Ar      15.16207219      16.18190579      16.87125681      -0.02950010      -0.04560304       0.05294393
Ar       1.81064900       9.68807767       5.50180972       0.04752442      -0.01272035      -0.04390911
Ar      17.02285690      13.34246869       1.43270988       0.02446957      -0.03275207       0.03005107
Ar      12.31018150      12.58456125       5.09925723      -0.07370864      -0.02646743      -0.00616515
Ar       4.45257692      16.12233329       7.76623352      -0.03070117       0.02512456       0.03691272
Ar       7.22295790       2.73849151      15.67011607      -0.03962575       0.03346202      -0.10689868
Ar      17.16194925       6.71062157      16.90492556      -0.02217451      -0.08363475      -0.06018151
Ar       2.19008445      15.01915181      10.47224327       0.05201460      -0.02587144       0.04773928
Ar       4.55552095      12.43355867       6.82568621       0.05915347       0.05553655      -0.00560172
Ar      14.26192965      12.40262921      13.92871756       0.04981476      -0.04277612       0.05491279
Ar      16.66971372      15.97982349      12.66544444      -0.02330018       0.01531177      -0.03857348
Ar      11.22149959       9.28311564      12.17502457      -0.00490446      -0.02025032      -0.01197922
Ar       9.30462348       9.95059422      15.14210337       0.02157811       0.05886067      -0.00760386
Ar       8.17700280       5.72499653      11.37027199       0.00902848       0.08654666       0.02143061
Ar       8.12613683       9.03622767       1.97223205       0.03153526       0.05022356       0.02542896
Ar       0.47063106      13.09319730      15.31652081      -0.02960211       0.01793728      -0.14201935
Ar       7.61812540      15.51391012      16.32354245      -0.03168417      -0.01249218       0.00691477
Ar      17.19499899      12.25483846      11.32367479      -0.00643229      -0.01082734      -0.01051442
Ar      13.78262542       1.56254120       7.51940492       0.07300089      -0.02476258       0.03200775
Ar       6.77428662       8.77898988      13.31131964      -0.02597504      -0.03429528       0.01379038
Ar       9.31279027      16.79720567       3.80943115      -0.09056991      -0.02315526       0.02950710
Ar      13.53817158       8.53885819      14.90892300       0.08184148       0.03641736       0.04192672
Ar      15.91715577       1.84122256      15.42130716      -0.04688846      -0.00821187       0.04043405
Ar      15.39305783       3.79437118      12.27608595       0.03498414      -0.03490695       0.03313786
Ar       7.09973756      11.95773246      16.71479429      -0.01266093       0.04125605       0.07782462
Ar       2.01782384      10.43167890       9.02268977      -0.07170311      -0.06787053      -0.08221412
Ar       7.42001527      12.27582079      12.97396570      -0.01558885       0.10655582       0.02122787
Ar       9.06866052       2.11067196      12.65625569      -0.01827056      -0.04417175      -0.03117182
Ar       7.81495346      14.67520937       6.67035259       0.05555484      -0.04270065       0.05071000
Ar      15.44421112      11.43170780       6.71096959      -0.01899555       0.04474955       0.01315186
Ar      10.76085120       3.92135249       9.51818095      -0.09679309       0.00396780      -0.00780778
