108
Lattice="17.35 0.0 0.0 0.0 17.35 0.0 0.0 0.0 17.35" Properties=species:S:1:pos:R:3:momenta:R:3 pbc="T T T"
Ar      10.41070368       0.04224496      10.02701414      -0.05409825      -0.03039119       0.04919907
Ar       6.51400702      12.51097670      12.98397371       0.06198667      -0.07803623       0.06087993
Ar      14.51917776       1.71852895       3.40955608       0.02065150       0.01333947       0.04655837
Ar      16.01935319       5.29895439      14.49854030      -0.09569519       0.10116863      -0.04247635
Ar       5.48630518       6.67948648       6.99238672      -0.07940340       0.04520535      -0.08090165
Ar       6.40781252      14.20847574       4.34227471      -0.01520910      -0.02254755      -0.03333354
Ar      12.58601633       4.64596157       7.40158317       0.04667016       0.03202015      -0.07531947
Ar       7.80548110       7.03052549       4.40198009      -0.05272900      -0.11231019       0.04996944
Ar       6.75898312      15.48404142      10.56631555       0.00183505      -0.03186370       0.06455733
Ar      13.72573205      16.71030832       1.13035738      -0.02777347      -0.00077824      -0.01273952
Ar      16.77775638       9.31089494       9.78023031      -0.07067204      -0.08779828      -0.00037494
Ar       2.36427952       5.82066807       8.26460502      -0.01431790      -0.01387705       0.06467246
Ar      13.17388003       4.92822203       1.75855867       0.00228420       0.00809492       0.05003259
Ar      10.68568044       1.45303027       0.15470356       0.05424037       0.01780765       0.06228753
Ar       1.79851422      10.34338802       0.48365492       0.03051918      -0.00841707      -0.00536888
Ar       3.66377272       8.62452639       2.81751727       0.02988670       0.02882103      -0.01221320
Ar      11.36878239      13.10020891      13.18047876       0.04611284       0.02354096       0.07557758
Ar      12.38076367      11.36877413       0.88718204       0.01919823       0.06712924      -0.00567571
Ar       4.60556167      16.48320351       7.59045823       0.03353245      -0.01203110      -0.01588702
Ar       6.42104587       4.60010029      15.91684023      -0.04303481      -0.02395639      -0.12993300
Ar      15.21778644       5.27706097       4.46484714      -0.12487552       0.04771519       0.08948536
Ar       3.09545261      14.45249715      11.87832950      -0.00295266       0.02023351       0.01219866
Ar      12.00617399       7.51682547       4.64722538       0.02796403      -0.10135789      -0.01695829
Ar       5.53668077       0.94035951       3.97651679      -0.02583502      -0.06595794       0.08834230
Ar       1.67626312       3.17177348      14.94188705       0.00164532      -0.04822396      -0.02259526
Ar      15.58199158       9.60970443      16.36785561      -0.05991930       0.05946736       0.04544750
Ar       1.10490509       6.58751082      11.84595407       0.02729917      -0.07168370      -0.01676308
Ar      13.19252354       2.19437436      10.15007211       0.08270158      -0.04143332      -0.09758342
Ar       7.15757585       9.85696222      10.27392363       0.02746377      -0.11356455       0.02301303
Ar      16.17019014      15.22506605       3.57615091      -0.02468901      -0.09029496      -0.04548482
Ar      17.26724219      17.29655014       0.85402274      -0.00728919      -0.01142225       0.01529883
Ar       8.13063794       3.50533937       6.37829972       0.00525615       0.03413285       0.05084585
Ar      13.02795401       8.38568793       8.10492580       0.12559609      -0.07351783       0.04340897
Ar       7.56864075      13.23682480       7.81003847       0.06755318      -0.11744886       0.01269071
Ar       2.82465992      16.54766169      15.96926769      -0.02320265      -0.00124677       0.02778037
Ar      17.08685007       3.16116172      11.00326288       0.02474112      -0.10792346       0.08045418
Ar       5.50533995       4.91724861      10.91329958      -0.02054939       0.06519993      -0.01161945
Ar       0.54926371      13.97187259       0.84874512       0.11882532       0.03154384       0.02243958
Ar       5.04182789       8.19247702      13.24897558      -0.00322286       0.06774611       0.03370967
Ar       0.00863166      14.21903660      10.05869550      -0.01027613      -0.04317166      -0.05884779
Ar       5.40299373      10.18223576       6.05535019       0.01049549      -0.08931903      -0.00854006
Ar       9.62312552       3.12086318      13.78248149      -0.07293969      -0.05677542      -0.00976008
Ar       8.41363835       7.11259397      11.60150152       0.06055427       0.12533044       0.01693804
Ar       3.39238006       5.75471627       0.03000702       0.03341294       0.08616162       0.07085550
Ar       3.62826297       1.97084571       0.69687637       0.05140965      -0.05736728      -0.09688396
Ar       2.03406226      11.22482292      11.38436384      -0.00618040      -0.01208337       0.01685060
Ar       6.78870119      14.00154391      17.30230681      -0.03696714       0.07305870      -0.03117926
Ar       2.48067512      16.29064474       3.34031524       0.01661548       0.08604747      -0.07511622
Ar      12.71939374       3.82377739      15.32513508      -0.00730541      -0.02971822       0.00534013
Ar       1.05800626      15.75386452       6.78015890       0.07399091       0.06440564       0.04445651
Ar      11.56248561       6.05255579      13.05121186       0.00915863      -0.03200241       0.01947028
Ar       9.42351807       7.05006691       7.68552779      -0.04507940       0.05641601      -0.01983078
Ar      12.59614311      14.30760942       3.81014773       0.03468078      -0.02652050      -0.06893828
Ar       6.37733359       2.02415204      13.24042810      -0.00835617      -0.02116313      -0.01973737
Ar      15.83744358      12.73237008       5.82120881       0.05476895       0.08531518       0.04903932
Ar       9.57257680       3.73719706      10.08894529      -0.02136619       0.07098046       0.00059515
Ar       5.01815659       4.52522277       3.37074279      -0.00784270      -0.00888104      -0.00723882
Ar       9.55425570      12.90765427       2.18825370      -0.01931388      -0.00082574       0.04292059
Ar      10.37019381       4.31442603       3.57018904       0.02451567      -0.02553275      -0.00329824
Ar       8.67940945      10.99771474       5.15574450       0.02424288      -0.05246766       0.11363673
Ar      14.01248023      14.07493611      15.73266213       0.02848509       0.01856698      -0.09384544
Ar       9.06493596      11.18301374      16.39094409      -0.03192921       0.07750259      -0.05582524
Ar      11.54516263       0.62290173       4.99379944      -0.11163106      -0.01379064       0.08092343
Ar      13.80346331      15.91193229      10.46994050       0.03572146       0.02232830      -0.01368959
Ar      15.48896516       9.22339244       5.85761798       0.09476777       0.01992820      -0.02553855
Ar      16.02726786      11.47889077       2.34139584      -0.14844503      -0.00128323       0.01898239
Ar       6.74825080       6.88084383       1.04785095       0.04951298       0.03475101      -0.01128287
Ar      12.18247910      10.97816716       4.46350668      -0.00908121       0.01664796      -0.04489369
Ar      15.76237358       2.96554471      17.16636553       0.01186960       0.01587643      -0.01675535
Ar       3.06455874       0.65352135      12.21831437      -0.02954350       0.00791726       0.07547141
Ar       4.14617773       2.69718159       6.78122174       0.12432301       0.04326043      -0.01468548
Ar      11.12441861      11.19998627       8.08032283      -0.04970492      -0.01482991       0.01640724
Ar      11.95057766       9.21970486      15.07493210      -0.00854092       0.04634942       0.06494307
Ar       1.29139183       3.83156621       3.96174167      -0.07121246       0.01358113      -0.01680399
Ar       4.14814255       8.35020396       9.81078175      -0.06285359       0.07376876      -0.01426802
Ar      11.75974113       9.87206836      11.27508718      -0.00024942      -0.00705238       0.06713859
Ar       9.83802733       4.98678718      17.14174065      -0.00095556      -0.02021782      -0.06178291
Ar      16.79490381       0.23144374      12.90952409      -0.09588632       0.01188201      -0.06673885
Ar       2.06523706       9.11996012       6.47966530       0.03286415       0.04260356      -0.04987776
Ar      10.15252749      14.91472265      16.54404162       0.03179916       0.11538030       0.04818573
Ar      11.32550647      14.92665493       7.25897135      -0.02129584       0.03628907       0.01032483
Ar       2.04644956      12.54026842       4.63001504       0.04563950       0.00404377      -0.00228561
Ar       7.42680401       2.85290503       1.54337955       0.06010782      -0.02094725       0.03238912
Ar       0.46251799       6.51893158       0.91925478      -0.05439062      -0.06975049      -0.00914574
Ar       3.52097729      12.64679176      15.61550220      -0.03538069       0.03741106      -0.03231862
Ar       6.36460012       1.85794157       9.53938766       0.04761109      -0.07185365       0.01477910
Ar      14.86723451      12.78250070      12.37063340      -0.06402696       0.01659989       0.07521558
Ar      15.00117986       8.62438613      13.04344656       0.03702068      -0.02733866      -0.07361212
Ar       6.46783171      10.78244520       2.30930270       0.05550423      -0.01835788      -0.09070579
Ar       8.22917817       7.70067700      15.12060363      -0.05929136      -0.01708275      -0.02163503
Ar      16.40967920       5.30072575       7.55263371       0.03379449       0.01968129      -0.00399881
Ar      14.72011442       8.28153002       2.38901382       0.03119352       0.08966756      -0.00519003
Ar       0.10807297      14.39677963      14.30980904      -0.01021242       0.00985289       0.05416268
Ar       9.28706388      15.86951872      13.20613070      -0.06846788      -0.08478794       0.01457082
Ar       1.40378671       8.92577400      14.56924377      -0.06749352       0.03280889      -0.12024835
Ar      16.95200702       1.82527221       6.26152247      -0.02967130      -0.03630666      -0.02583488
Ar       5.22007678       9.63867844      16.65410808      -0.01151578       0.07509941      -0.01948864
Ar       8.25376398      16.90938568       2.32502658       0.00774128       0.00474675      -0.01555830
Ar      10.04521802       8.69166838       1.48344131       0.00994792      -0.02496409       0.00443685
Ar       1.87280353       1.05186975       8.91653926       0.09615794      -0.07454899      -0.05821425
Ar      14.60810497       5.86592665      10.99218962      -0.02277995       0.04386772      -0.07487288
Ar       7.22979559       0.02847947      16.21958335       0.04583804      -0.04697599       0.01503965
Ar       3.91408084      12.69599483       8.19585870       0.02204203       0.01041869      -0.08403913
Ar       5.52172571      15.89528260      13.88360531      -0.09658663       0.05203154       0.07975249
Ar      13.35005610      17.20689365      14.18799250       0.07840193       0.01206399       0.01653559
Ar       8.00963902      16.94317507       6.25193787       0.03180289       0.03478930       0.02492469
Ar      14.39018937      11.68077764       8.95466563      -0.05357411       0.09572540      -0.01888952
Ar      14.31995357      16.76732300       6.72986294      -0.06613915      -0.17432425       0.00348849
