108
Lattice="17.35 0.0 0.0 0.0 17.35 0.0 0.0 0.0 17.35" Properties=species:S:1:pos:R:3:momenta:R:3 pbc="T T T"
Ar       8.99893319       1.45110612       4.93957832       0.03400062       0.07085873      -0.04123942
Ar      10.69561050       6.37815969      12.21646303      -0.00431152       0.01387119       0.01089259
Ar      12.51309399       2.54236779       4.90374029       0.03605216      -0.05526517       0.03985956
Ar       0.09563446       7.73474265       6.02950446       0.04049877      -0.04639588      -0.08203312
Ar       6.89581915       3.03968610      11.12719603      -0.01450116      -0.08844692       0.05753047
Ar       2.42329430      13.58489044       4.92048680      -0.03087387      -0.05512901       0.06333292
Ar      15.23182216       4.98415400       4.64952577      -0.03762496       0.06210761       0.01093754
Ar      11.97013519       7.20603629       5.93311509      -0.05023010       0.00283726       0.02298763
Ar      10.34242445      15.81759228       6.71985903      -0.06457737      -0.01538211       0.03498650
Ar      15.21383599       5.59208960       0.50908747       0.02673400       0.06201087       0.06672249
Ar      15.59826484       9.60051440       9.56159023       0.05058529       0.01645230       0.03733504
Ar       3.33586967       3.58299716       9.11877120       0.04026810      -0.08029880       0.00678039
Ar      11.92482451       4.41812600       1.95103536      -0.01783236       0.00566676      -0.00870006
Ar       9.25667756       8.11355647       8.71657262      -0.00515547      -0.04203980      -0.02214490
Ar       5.11646892       0.53540758      17.23614066       0.01359709       0.00296237      -0.07539144
Ar       1.50591254       4.62331692       6.08516914       0.01836480       0.08238816       0.03688404
Ar      11.86995081      10.17568400       3.40834253       0.00659973       0.10423588       0.10556048
Ar      10.46491384      15.47832098       1.89290306       0.03102302      -0.11608365       0.00566509
Ar       9.11182450       5.67170728       4.61082969       0.02031651      -0.05542438      -0.00400657
Ar       1.87914834       7.00567822       2.93443787       0.01001969       0.11310431      -0.00744645
Ar      14.87957916       8.16090998       2.80160843       0.07692153       0.05936361      -0.07563302
Ar      14.24485733      15.15316499      11.54911172      -0.04773684       0.12825429      -0.02527502
Ar       5.20571494       3.16944408       5.96006182       0.07863396       0.04938503      -0.02314178
Ar       5.56247966       6.79788185       3.95879962      -0.05145644       0.01740857      -0.03012218
Ar       0.17188326       3.10448443       2.91405404      -0.01600761       0.04469481       0.03646268
Ar       7.87395683      15.19590641      16.03992068       0.08207294       0.01802745      -0.03251587
Ar       7.35321692       2.77248490      15.03254005       0.01403643      -0.10275144       0.04830086
Ar      11.51846334      16.95500216      13.64581491       0.09269471       0.04010514      -0.01389796
Ar       1.97905418       1.54693617      14.98780770       0.03489387      -0.01055081      -0.05117305
Ar      13.47270733      17.29267147       7.94330867      -0.00535848       0.00275562      -0.08173352
Ar       7.07113751       5.96592324       0.41054228       0.03774401      -0.01326976       0.01157465
Ar       8.01444425       4.34971133       7.76899212      -0.02623974       0.05693534      -0.04080483
Ar       5.99484519      10.82086153       8.77966113      -0.08561874       0.04823347       0.01193128
Ar       6.22425587       5.96792419      14.02329304      -0.12401375      -0.05291586      -0.02211583
Ar       4.68542931       0.07534920      12.94945216       0.02039816      -0.05044828       0.06384882
Ar      17.02818063       5.63803528      12.00607254      -0.02152176       0.02477818       0.04220620
Ar      16.08271803       3.46631340      15.23700069      -0.04245954      -0.01930572       0.01164254
Ar       3.21903790       0.55438404       3.87203196       0.04899429       0.01099630       0.05938590
Ar       3.14592341       4.50200107      12.44839830       0.02558291      -0.07516082       0.04167972
Ar      10.63098530       0.81244256       9.97532339      -0.00141687       0.01155009      -0.05407900
Ar       5.67508471       7.20363924       9.45966891      -0.05353752      -0.03161349       0.08741230
Ar      13.41512698       6.98603989       9.78550506       0.01949492      -0.01441766       0.00409397
Ar      13.26086192       3.43654652      12.11488518       0.09180681       0.00759672       0.04055266
Ar       7.07043227       2.25833566       2.36604451       0.01868039      -0.03408483       0.02220699
Ar       3.57186943       3.91414269       2.26617494       0.07962969      -0.01825529      -0.05297085
Ar       0.72438547       9.23997468      12.15728026      -0.02976937       0.00699893      -0.07445852
Ar       2.09229944      11.78135411      14.42272457       0.02729954       0.02729933       0.02809309
Ar       1.35949831       1.65236263      11.36363130       0.02358293       0.01065116      -0.04767601
Ar       9.99669032       9.63889051      14.78005007       0.01918073      -0.01795462       0.03996042
Ar       1.67685110       7.22609011       9.28544532      -0.00900148       0.01563324      -0.01333663
Ar      10.73774104       6.39017478      15.96826024      -0.01637181      -0.00992780      -0.07942341
Ar       9.89142346       3.09766030      12.91042870      -0.08776915      -0.07933078      -0.04544803
Ar      16.46190328      11.27768495       0.62905157      -0.04144432       0.10630041      -0.04868495
Ar       7.71356780      14.47831795       9.29706309       0.05962433      -0.06547866      -0.12048190
Ar       0.61968196      12.12900408       7.97288408       0.11241420      -0.03838055      -0.08479590
Ar      15.43031629       1.52007104      10.37786460      -0.10152319       0.09706454      -0.04473569
Ar       3.50701521       8.39488148      16.81520566      -0.00016484       0.03460810       0.02696159
Ar       9.21078493      11.49925670       1.13899188       0.03149381       0.03145403       0.06068148
Ar      13.51374600      12.99334345       1.18398668      -0.07866377      -0.04713696      -0.00161452
Ar       8.26076302       9.71383995       4.96940544      -0.00714947      -0.13120356      -0.00684955
Ar      14.00429597       1.39094216       2.06369666       0.00205133       0.06187128      -0.02367105
Ar       9.13798576      13.11100795       4.32286031      -0.01507079       0.06124183       0.12377577
Ar       9.99794838       1.09710605      17.13877838       0.07487797      -0.09009420       0.02637583
Ar      13.09442631       9.20153183      16.77902518      -0.04216034      -0.06210822       0.05010353
Ar       3.84596914       9.39538398       6.35558655      -0.06137290      -0.04057239       0.06188442
Ar      16.87072228      15.19368227       9.17059115       0.02518733       0.02709822       0.06319051
Ar       2.29632353      13.49060779       1.13775816       0.05189441       0.00701800      -0.00351652
Ar      14.56445263      10.23762165       5.67427962       0.04410037      -0.06187401      -0.09570087
Ar      16.41118666       1.43423315       5.82890498      -0.06428990       0.03161777       0.03079667
Ar       9.49560851      12.96621267      13.43108850      -0.03661207       0.03014138      -0.02852957
Ar       6.12755014      16.27385855       5.50240890       0.01570228      -0.02524313      -0.02397215
Ar      14.08105117      12.63481046       8.74441822      -0.02495132      -0.00502238      -0.04120401
Ar      17.23250012      17.04062674       0.89181258       0.04817900      -0.08326914       0.04970292
Ar      16.09095645       5.15309505       8.36840333      -0.04679495       0.05305420       0.08669989
Ar       5.64074613      10.45188873       2.35631333       0.00662134      -0.00876958       0.02822893
Ar      10.86863706      11.29646214       7.35366773       0.02643558       0.00475100       0.04647922
Ar      13.22728461      12.77890636      13.60331430      -0.04920203       0.04019710      -0.03391748
Ar      12.02688140       3.18675913      15.60966258       0.07947381       0.00038951      -0.01296208
Ar       9.75137690       7.86956435       1.97895618       0.00016860      -0.03712527      -0.05942444
Ar      12.54949346      13.64783116       4.76706789       0.03380305      -0.10988045      -0.06194103
Ar      15.99588259      14.14961693       4.92820682       0.03746409       0.04496297       0.04366760
Ar       2.18048265       0.49856118       8.13161964      -0.01380947      -0.00840664      -0.00523103
Ar       8.14135758      16.97136567      12.65782767      -0.02862865       0.04531414       0.03264124
Ar      17.29387884       8.31351818      15.67468499      -0.01607917       0.00361796       0.08127365
Ar       4.05749124      14.96282635       8.18969343       0.00508052       0.05829779       0.07893693
Ar       0.45939954      10.68895582       4.09269733       0.01236627      -0.03132982       0.05496031
Ar      11.46525595      10.18216402      10.59978530       0.04747721       0.02077162      -0.02013259
Ar      15.78522042      14.07434993      15.93454072       0.09366125      -0.05135479      -0.12300557
Ar      16.57781029      12.23888355      11.68050178      -0.04116896      -0.06135691      -0.02235834
Ar       5.40478089      12.63661757      15.86670748      -0.10850994       0.01666473       0.01755989
Ar       3.36288886       4.90767830      16.06925454      -0.01230073      -0.01271316       0.02346693
Ar       7.01618175       9.23211873      16.91992591       0.00221130       0.02829403      -0.08495236
Ar      14.32774960       9.29825919      12.77595422      -0.05707357       0.01600845       0.04693868
Ar       5.77669776      13.28566183      12.40447940       0.01289648       0.09891808       0.00140453
Ar       1.46007970      15.48186212      12.05533547      -0.00262201       0.00416877      -0.01908766
Ar      11.90158011       3.89732938       8.29558699      -0.11167140      -0.00200164      -0.00117567
Ar       4.50931739       9.54635378      12.63080314      -0.14284580      -0.02776030      -0.07136970
Ar       5.50358013      13.95824812       2.33793650      -0.04014407       0.04728793       0.06076609
Ar      13.62846780      17.22238479      16.17070184       0.02158464       0.03995339      -0.03212314
Ar       2.93043825      15.45100121      15.49835463      -0.01659225      -0.03278009      -0.07457498
Ar      16.48329628       0.20238849      14.06817707      -0.02728372      -0.01648567      -0.00352812
Ar      11.39405625      13.93827894      16.11279925      -0.04165404      -0.03251647       0.00675941
Ar       2.63281350      11.92298106      10.56718687      -0.00745639       0.04216727       0.05837135
Ar       7.99571988       9.62482631      11.53238752       0.04587854      -0.00099112       0.00644453
Ar       7.05691963       0.62782330       8.39615576      -0.02649448      -0.03975498       0.01669301
Ar       6.02059139      12.83677464       6.04354882       0.05993964      -0.06037206       0.03482705
Ar      11.34707924      14.43041569      10.32673223       0.00992196       0.05126798      -0.14650629
Ar      14.38866325       6.31576571      14.33364436       0.02690355       0.04676982       0.03239587
