108
Lattice="17.35 0.0 0.0 0.0 17.35 0.0 0.0 0.0 17.35" Properties=species:S:1:pos:R:3:momenta:R:3 pbc="T T T"
Ar       9.26681707      13.08504815       5.32457248      -0.00276382       0.03284282       0.01052451
Ar       8.72665531       7.71445009       9.75808118      -0.06090681      -0.01199085       0.01282836
Ar      11.81589043       1.68826411       4.82704188       0.06256377       0.10128446      -0.05445921
Ar      16.80056207       6.07387163      16.67272867       0.02198411      -0.01305906      -0.07317377
Ar       3.91118368       6.09521741      10.62149338       0.03368739      -0.04557968      -0.02860055
Ar       7.70226283      13.40407483       2.04056817       0.04961942      -0.00922771       0.12382229
Ar      12.41937422       3.55542184       7.80661327       0.00959484      -0.01041515       0.14065084
Ar       6.83037876       6.93220758       6.40956653      -0.00474738      -0.00698751      -0.04786917
Ar       8.48829557      14.12910043       9.58185825      -0.04263636      -0.00523075       0.05894059
Ar      16.04617695       0.76133145      16.81053068       0.04351658       0.04568564       0.09776720
Ar      17.07327982       7.91379459      10.69959771      -0.00436387       0.00773998      -0.01142165
Ar       0.10542200       4.82911801       7.58648980      -0.04512451       0.03398791      -0.01651292
Ar      12.65375618       3.56240661       0.85064744      -0.02487561      -0.07611464      -0.05344642
Ar      12.34558442      17.29095477      16.79708773       0.05568399       0.06001244      -0.05114740
Ar       4.17163766      11.15364754       1.41366927      -0.08869165      -0.05248269      -0.06301880
Ar       4.12526166       8.70315872       4.06274742       0.04031972       0.03627687       0.05465946
Ar      11.60952884      11.49087237       8.49118035       0.03324266      -0.08527258       0.01521856
Ar      15.16077023      12.31866021       2.73720540      -0.03419137       0.09303512      -0.15010848
Ar       5.70289820      16.54776255      10.42075000      -0.05906651       0.04182706       0.04636149
Ar       6.88335254       6.83680431      17.00256006       0.01111235       0.01446040      -0.07503939
Ar      15.06077191       6.20731227       2.39721413      -0.01665649       0.02619595      -0.00294447
Ar       2.30282106      15.67064350      10.43074866      -0.07764083      -0.04168042       0.03943003
Ar      12.12987108       6.37446181       3.92118622      -0.00782350       0.04476549       0.01495333
Ar       5.36144270       4.88024884       3.04621507       0.03351896      -0.04618696      -0.02411693
Ar       1.51768939       2.89314515      15.62758304       0.06335441      -0.00331562       0.04792105
Ar       1.91473371      13.60587035       0.77770919      -0.09366530      -0.03332147      -0.04571105
Ar       0.68136266       4.60646836      11.66105667      -0.01484261       0.06600332       0.00989867
Ar      12.86852631      14.63276314      10.68423795      -0.00490484       0.01225796       0.01207963
Ar       3.94956107       9.40889423       8.62353456       0.05744077      -0.00791389      -0.03721743
Ar       0.01096715      16.30583185       6.52608807      -0.02474665       0.02546786      -0.07433612
Ar       2.31486863       2.98773460       1.88510540       0.03522583      -0.04122685       0.03423263
Ar       9.04817098       4.66099754       4.01699011      -0.01577317       0.04666925       0.06417687
Ar      15.09696884       7.77851961       7.39041919      -0.09090723      -0.02870135       0.11500997
Ar       5.03616022      13.03900624       9.63540139      -0.05513867       0.04620903       0.05699932
Ar       2.90830732      17.03712773      17.12891195       0.06378544      -0.06878890      -0.01692307
Ar      14.78180840       5.28394216      13.52916499      -0.05129113      -0.01928088      -0.06904053
Ar      17.33792356       1.17661558      12.86957907       0.00137170       0.05163759      -0.01959986
Ar       2.77628718      15.89752767       3.86160096       0.03523227      -0.06525073       0.05732782
Ar       4.56881729       3.24190569      13.27815110       0.01857874       0.02054715      -0.02355890
Ar      16.34702212      14.35432458       9.07832130      -0.01365795       0.07035044       0.07979260
Ar       5.76491149      11.99710951       4.61267976      -0.03820519      -0.01948070       0.04072056
Ar      10.04605362       4.78296632      14.74495467       0.01956562       0.07848976       0.02259796
Ar       2.59518408       6.21984121      14.29096785      -0.01508552      -0.01726200       0.05619112
Ar       3.16308987       5.84945903       0.59622947      -0.00867839       0.02710674      -0.01770725
Ar       5.29397370       3.13833507      17.02458382       0.06825664       0.02694519       0.03889959
Ar       2.64247240       9.18054673      12.43193297      -0.01723003      -0.03237803       0.06359652
Ar       5.17415923      14.09799480      15.97208987       0.07452928       0.02342544       0.00723072
Ar       2.15813006       2.29282248       5.48003285      -0.00431819      -0.00768026      -0.08569865
Ar      12.87519293       2.79404989      14.41130422       0.00507348       0.03117598      -0.04945589
Ar       0.22982896       1.52373106       9.26585608      -0.08117374      -0.06111800       0.07982241
Ar       6.97772908       6.32437390      13.18379900       0.13246394      -0.03576046      -0.08467492
Ar       9.14869713       4.35262868       7.88626123       0.02830781       0.00253275      -0.05695741
Ar      13.78565689      17.30885550       2.80518570       0.10443640       0.04410493       0.06198537
Ar       7.98087024       2.56365939      10.94144290      -0.05850465      -0.08395854      -0.00078197
Ar      16.46681476      11.77107830       6.70542432       0.00522682      -0.04882333       0.04552875
Ar       9.02545401       0.03439179       7.52743542       0.01231101       0.10651654       0.06997386
Ar       8.01177983       7.79499134       3.26137117      -0.00611538       0.03033102       0.06171977
Ar      11.43712958      13.25283310       1.11559200      -0.04318847       0.04021759      -0.10273878
Ar       9.96244393       6.46220032       0.70748764       0.02325027      -0.06547508      -0.01749631
Ar       7.58576791      10.95605192       7.81053519      -0.01910510       0.07822154       0.04499615
Ar      17.16350686      16.70302842       2.55152788       0.01112864      -0.12001269      -0.10064810
Ar       9.47901068      12.47613215      14.99032947      -0.02730199       0.02230138       0.00149103
Ar       9.87500967      15.88438241       3.47168957       0.01477255      -0.03480248       0.00325425
Ar      13.58090199       9.87442423       5.06871652      -0.02086213      -0.07295758       0.02805202
Ar      16.97169351       9.47348601       4.12504715      -0.02029180      -0.02773531       0.02349341
Ar       1.98151930      12.41123816       4.20132678       0.13225603      -0.02347693      -0.00465677
Ar       8.54022525      10.10495146       0.15518773       0.06876079      -0.04807506       0.05248623
Ar       9.92598425       9.48552833       5.87877558      -0.04750083      -0.00819263      -0.01683099
Ar      16.26053159       2.98688628       2.28101136      -0.06717533      -0.08239906      -0.03818586
Ar       3.45394545       0.01041076      13.46732067       0.06710250       0.04312957      -0.01408007
Ar       4.10126732       2.27737610       9.70694607      -0.10366540       0.00526357      -0.04771198
Ar      11.91913943       7.46409550       8.84807280       0.04720154       0.01658695      -0.03523772
Ar      16.31330692      11.48817278      16.76416946       0.02356084      -0.03436284      -0.03465906
Ar       0.97609225       5.89438297       3.60466639      -0.06721233      -0.02455980       0.05026318
Ar       3.67500003       4.99417755       6.72073751      -0.02726342       0.04068983      -0.00096891
Ar      12.00575092       8.94823509      12.49165691      -0.00598630      -0.10474628       0.04470542
Ar      13.33131767       7.02662752      16.67014015      -0.05113502       0.09347471       0.00516767
Ar      14.63575655      16.56425329      13.61002888      -0.02816000      -0.01026006      -0.10124178
Ar       1.39385289       8.19122466       6.91728104      -0.00833594      -0.00611017      -0.04245751
Ar      14.88385566      14.74233209      17.18604252      -0.04670278       0.09980297      -0.03064084
Ar      12.69407329      13.60516025       5.79347511       0.09149028      -0.07032505      -0.06155736
Ar       2.93664653      14.40585913       6.98074989      -0.02004851      -0.01311554       0.03676943
Ar       9.08477036       2.07064310       0.94697530       0.00683582      -0.06561550       0.06053795
Ar       1.33591718       9.01504346       0.05810686       0.00346311      -0.00271434       0.07175987
Ar       3.68840820      12.58630231      13.26571218       0.10678524       0.04428986      -0.04850306
Ar       5.87314238       1.48716129       5.36505092      -0.05779017      -0.01488998      -0.03220897
Ar      13.51930766      12.72131002      13.72688250      -0.06323952       0.04708771       0.00094175
Ar      16.89457019      12.73521939      12.78077763      -0.01064619       0.01889081       0.10883686
Ar       6.26585869       9.87122785      11.82997681      -0.09408181       0.08755961       0.09068526
Ar       9.22151412       8.31963521      14.52839232       0.06593540      -0.03331812       0.00083175
Ar      11.26493460       4.35643463      11.47047943      -0.05232518       0.01622155       0.01809701
Ar      11.19015175       9.88910207       2.60814974       0.01197923       0.00814250      -0.02836174
Ar       0.59900688      15.33980389      14.87813034      -0.04786931      -0.05771682      -0.10149972
Ar       7.78090827       1.88094845      14.27744725       0.00685893       0.01028891      -0.00551664
Ar      15.82740266       9.13887922      14.26960133       0.08903770      -0.13821659      -0.05794252
Ar      15.29268192       2.48432373       5.84156730       0.02555025       0.01848520       0.07462506
Ar       5.06963861       9.82224923      15.43231186       0.03049592      -0.00558838       0.00910518
Ar       6.35468986      16.86352054       2.24284846       0.02999699      -0.05712859      -0.00287174
Ar      12.42122704      10.43797092      16.40759619       0.02581983      -0.06878612       0.02723178
Ar      14.37112844       1.76942810      11.00670739       0.03585125       0.00923608       0.01515270
Ar      14.85406618       5.11162347      10.08579239       0.05225937      -0.00103347      -0.07362494
Ar       8.70867328      16.14627675      16.37550691      -0.04843111       0.06517176      -0.00049634
Ar       1.65177319      12.04518535       9.79801349       0.02221826       0.06880840      -0.04359145
Ar       7.07612105      15.33510224      13.44821874       0.01791445       0.00208992      -0.01393708
Ar      10.37798401      16.84064889      13.04252673      -0.07488921      -0.04993144       0.00320327
Ar       6.17479293      15.45351300       6.61957149      -0.04493326       0.08736541      -0.01235594
Ar      14.97564013      10.87770427      10.00473852      -0.07118433      -0.01758639      -0.08160814
Ar      13.90524225      17.02966896       8.20116385       0.10252361       0.06641036      -0.02739653
