108
Lattice="17.35 0.0 0.0 0.0 17.35 0.0 0.0 0.0 17.35" Properties=species:S:1:pos:R:3:momenta:R:3 pbc="T T T"
Ar       9.32722664      14.92848633       4.09815033      -0.02651114      -0.01954475      -0.04526985
Ar      10.81419998       9.92395791      11.68447640      -0.01361343       0.07714006      -0.06241428
Ar      13.32959580       2.76906905       3.52811042       0.05675780       0.08402967       0.00117618
Ar      17.02535413       6.07105724       4.83101427       0.02136953       0.02982971       0.00950398
Ar       6.22617990       3.33121419      10.98054107      -0.01242617      -0.03563745      -0.04040061
Ar       4.77943861      14.97808163       3.41513303      -0.05014338       0.02713398      -0.03699382
Ar      14.34998148       5.69415135       7.26469563      -0.03424947       0.02791139      -0.01797193
Ar      10.66909110       8.54865601       7.06311669      -0.04425697       0.03637443       0.00451744
Ar       8.78084706      14.58551451      11.17952614       0.01229057       0.04926787       0.05108925
Ar      14.70506821       3.93806109      17.27313163      -0.06566705      -0.03647043      -0.01261073
Ar       0.89170028       7.95161233      12.19377239       0.01770749      -0.03560646      -0.01969482
Ar       2.06856695       1.29367588       9.12009638       0.00994613       0.02298575      -0.08077106
Ar      10.41196823       3.47772639      16.35964468       0.02918236       0.00785714      -0.02304170
Ar      10.62646751      13.12357338      14.04637413       0.03299013       0.04444904       0.01212686
Ar       4.11833269      16.59844733       0.22760191      -0.08541853      -0.01060900      -0.07020661
Ar       3.72498278       3.88502150       6.89608352       0.00648228      -0.01615509       0.02212086
Ar      13.66932708       9.93613645       5.41738750       0.00937560       0.06509605       0.02113774
Ar       9.47249650      13.37840581       0.94421973      -0.08601164      -0.05851746      -0.09555316
Ar       9.22859713       1.16146767       5.38867831       0.03525554      -0.00901091       0.05649560
Ar       2.79741264       8.68143253       1.67471382      -0.06479948      -0.04425089       0.14436320
Ar      13.83389480       6.76243576       2.69744030       0.07265163      -0.05097634       0.00041165
Ar      15.80342791       1.38019954      10.35592596      -0.04002987      -0.05700977      -0.04041995
Ar       6.84815822       3.68455892       5.93295539      -0.07214455      -0.00963467       0.01887950
Ar       5.73808882       6.11824497       0.16204354       0.07963068       0.01437158      -0.00897891
Ar      16.97955731       2.99483064       2.87137755      -0.06692511      -0.01997820       0.00582325
Ar       6.63071494       1.97970803      17.06083867       0.00936005       0.04527066       0.02556457
Ar       3.64290395       3.19105568      14.45494011      -0.06493352       0.12574847       0.01398722
Ar      10.33960277      15.99076349       7.96098835       0.03810938      -0.03190624       0.08789934
Ar       4.06523466      10.70830397      14.98004880       0.02263354       0.05538991      -0.04165700
Ar      14.80168426      13.43122952       3.27776475      -0.06424180      -0.07144910      -0.02379161
Ar       8.47930546       4.09522062       2.05684094       0.10368916       0.07563010       0.03618732
Ar       9.53770920       4.43239350       8.46169111       0.04459309       0.00848465      -0.00961919
Ar       3.98928079      12.07192528       6.85457377       0.05198645      -0.00852591      -0.10328319
Ar       6.46527564      10.93240644      11.40216933       0.00018561      -0.04795055       0.08333231
Ar       2.13134011       0.44648343      12.54388930      -0.00626354      -0.11769462      -0.03500211
Ar      15.11945983       6.28711404      13.88681364      -0.05657981      -0.08273135       0.00705995
Ar       2.56365860       7.14593748      15.53386208      -0.10169511       0.04491379      -0.04167375
Ar       2.25726875       1.28847992       5.15531159       0.01359808       0.05534616      -0.03273733
Ar       2.48142073       4.41085000      11.53384302      -0.01797710       0.06713080      -0.01311608
Ar      13.39540824      16.41103870       9.55533529       0.04312658      -0.05208445      -0.06076934
Ar       6.37064274       5.85390878       8.44390398      -0.02395009      -0.03534775       0.01366614
Ar      13.85277637       9.93144496      14.45644248      -0.06610617      -0.06038795       0.03923725
Ar      16.08180019       5.56245097      10.45943390      -0.04346282       0.02280533       0.10478347
Ar       4.76540969       4.45254642       3.37023359      -0.02164565       0.05347106       0.00596907
Ar       2.27623710       4.45269158       0.43517926      -0.02645976      -0.02145580      -0.01078003
Ar       0.55147282      11.03211610      15.15569082       0.01318546       0.06918800       0.08603068
Ar       3.19416385      13.98161808      13.64197938       0.01220958       0.02022680      -0.01926441
Ar      15.86949021      15.74095366       6.30623550       0.06028805       0.08556986      -0.00136931
Ar      11.48566549      16.85913162      13.76570102      -0.01255907       0.01795347      -0.03597248
Ar       2.23316158       6.92784970       8.46638812       0.06008446      -0.09101902      -0.10384392
Ar      10.59643917       6.81779981      13.79011200      -0.00691739      -0.00289343       0.04191254
Ar       8.62838605       7.32317256      10.54428040       0.01538037      -0.00017160      -0.00682154
Ar      12.94798397      14.32027882       0.76010776       0.10266462       0.03381609      -0.03600747
Ar       5.06238256      15.53513835      10.47496152       0.04063467       0.00616347      -0.02784021
Ar       0.20630458      12.70810245       6.89087655       0.01768567      -0.00791062       0.04201830
Ar      12.50134451      16.08802475       4.32506945      -0.00554465       0.01745222       0.11959085
Ar       1.93922265      12.10861660       0.91415811       0.03656257      -0.00146102      -0.05832460
Ar      10.76791053       8.52522214       2.84339644       0.01308586      -0.01481709      -0.08553510
Ar      12.56309693       7.21416150      16.54353677       0.02696951      -0.08735101      -0.02832659
Ar       7.00328053       9.59589409       8.28164836       0.03690125       0.08475512       0.05842609
Ar      16.46846275      14.07649580      16.73075066       0.07559345      -0.05866363      -0.03604170
Ar       9.89350840      11.83572869       8.19975119       0.02336100       0.02746917      -0.01451505
Ar      10.44710935       0.35371154       1.54108283      -0.08379462       0.05597169      -0.08249387
Ar      10.62326671       5.68664871       4.96169494      -0.04276622       0.03485318       0.08762751
Ar       3.51990537       8.42207599       5.62006491      -0.07508481      -0.11711892       0.04763169
Ar       1.00951443      14.94626514       3.41648697       0.05463843       0.06532371      -0.03318865
Ar       5.38318772      12.93135395       0.08531659      -0.01812447       0.01795251      -0.02199875
Ar      12.44173242       5.37148505      10.99394587      -0.00392818      -0.04892902      -0.04828279
Ar      15.61190432      17.08850400       2.69977466       0.06385758       0.02129451      -0.04500432
Ar       5.80133326       0.06010212      13.86654227       0.02978639       0.08091022      -0.00189255
Ar       5.78187280       0.67595909       7.64909215       0.06134354      -0.00497472       0.10045927
Ar      16.71896982       8.98914944       7.42706713       0.03667256      -0.09529081      -0.08112475
Ar      13.65280941      10.90887720       0.99772507       0.06533035       0.00932376       0.08164038
Ar       0.34509812       4.12875866       7.61060486      -0.03622831       0.03306912      -0.04642989
Ar       8.12571157      10.80608923       4.94437770      -0.00572465       0.02590949       0.00633986
Ar      14.20133616       8.59371065      10.56177791      -0.01393704      -0.03012689      -0.01700824
Ar      13.73981506       2.97161055      13.89931991      -0.06051915       0.08945701      -0.00003234
Ar      13.21022750       0.42481336      16.56563257       0.04533182       0.05615793       0.04110287
Ar       6.88010532       6.99626815       3.90921454       0.01982356      -0.07337765      -0.11071905
Ar      11.49283745      12.19268280       3.54921033       0.10232613      -0.08515890       0.00157253
Ar       0.26128895      10.77620359       3.81554776       0.02622806       0.06954030      -0.00326808
Ar       3.22156007      15.63897429       7.04161663       0.09111750      -0.07189512       0.07631523
Ar       8.77311407       1.93848025      13.51045850       0.01260798      -0.06397490       0.03775455
Ar      16.54628629       7.93543992       0.06118413      -0.04243680      -0.02388331       0.06896192
Ar       0.24669816      15.48442122       9.73731616      -0.02439540      -0.02434436      -0.05664275
Ar       4.75317047      11.29166827       3.41381336       0.05125330       0.03256898      -0.09950866
Ar      13.99522861      14.24988853      14.08711855      -0.07330586       0.02657252      -0.04500038
Ar      15.82720017      17.28632298      13.88901403      -0.15682976      -0.00112569       0.05510878
Ar      13.03547850      12.56906670      10.72723708       0.12409088       0.07206481       0.02698418
Ar       7.23687624       9.42761069       1.53891828       0.04857364      -0.04062225       0.08168504
Ar       7.19389332       5.82232255      13.87956329      -0.00264464      -0.05285966       0.01472319
Ar       9.23858787       6.72406835       0.03070032      -0.07033120      -0.05691457       0.11524454
Ar      17.05214457      13.82823472      12.81785312      -0.05012665       0.07131123       0.09490527
Ar       6.90106664      13.31454029      13.87067543       0.00852693      -0.00795293       0.12998713
Ar      16.48698875      11.63406517      10.20585146      -0.06410182       0.00330791       0.04569215
Ar      13.13002025       1.95059202       7.11304452      -0.06721732       0.05836858      -0.03653029
Ar       4.97631400       7.83494121      11.85681670      -0.03089638      -0.06004174       0.08082059
Ar       6.06653563       0.96917181       3.03639616      -0.04130875      -0.06359468       0.00403848
Ar      10.39117850      10.18657447      17.07367272      -0.02915422      -0.08034907      -0.06615385
Ar       0.02625425       0.82701755      17.28478529       0.03991950      -0.03989193      -0.14310618
Ar       0.09408651       3.33544473      14.70974151       0.04156989      -0.03758293      -0.08713969
Ar       7.53921470      15.93725852      16.92811365      -0.01375405       0.05819398       0.03126304
Ar       2.88333548      10.97295691      10.93456671      -0.07254080      -0.02151398       0.00678030
Ar       8.00259092       9.48432257      14.42985457       0.02172443       0.01547612       0.07172382
Ar       8.29222390       0.53985238      10.12400755      -0.07094407       0.07342622      -0.00990097
Ar       7.23566053      13.78624603       7.46014206      -0.03046971      -0.07322506      -0.02553188
Ar      13.30916730      13.33284960       6.67304790       0.04732564      -0.10292463      -0.01137164
Ar      11.62417571       1.82984301      10.68157282       0.12352183       0.10061077       0.03127615
