108
Lattice="17.35 0.0 0.0 0.0 17.35 0.0 0.0 0.0 17.35" Properties=species:S:1:pos:R:3:momenta:R:3 pbc="T T T"
Ar      10.04766271      12.06454191       3.48390455      -0.00927923       0.06580644       0.08592915
Ar       7.14423142       7.22147242       9.61025302      -0.02690694       0.00886816      -0.04041411
Ar      12.41786147       2.40026753       4.61132015      -0.00427644      -0.08676387      -0.01730740
Ar      16.96657990       7.41955859       2.60030887      -0.07489752       0.02738638      -0.05602081
Ar       3.99764886       8.16316533       8.08252289       0.02444394       0.00175564       0.01318013
Ar       6.49905713      12.87064977       2.66317589       0.00566625      -0.00955247       0.02782323
Ar      12.63759835       4.63039014       7.85677706       0.01506393       0.01892624       0.02297561
Ar       7.82601081       9.22216712       6.30470879       0.00991959       0.01443571       0.02244761
Ar       9.05806833      15.54437560       9.57494402       0.01594232      -0.09680303      -0.06367318
Ar      13.75737814       1.64042536      16.19568545       0.03275420       0.01681634      -0.00862390
Ar       0.67145033       6.81612545       9.52857192      -0.02327474       0.04073091       0.05057369
Ar       2.79813765       3.93197875       7.73874881      -0.07539874       0.08065003       0.05764744
Ar      10.72651353       1.14431122       0.98520992       0.03833824      -0.05962309      -0.00112042
Ar      11.69203936      14.56743957      17.15878834       0.00963495       0.04172418       0.04419821
Ar       3.24490652      11.86968209       1.44395397      -0.07477311      -0.02744365       0.01188286
Ar       2.24577188       6.57212440       4.84476465       0.14312608       0.00263191      -0.07226564
Ar      12.65798092      10.45928294       5.57403454       0.03238648       0.04268740      -0.02852970
Ar      13.45509358      13.46135992       3.03773059      -0.01447939       0.02470277       0.04609003
Ar       6.28596738       0.04630073       8.09415014      -0.06083965       0.01776977       0.01385409
Ar       4.65385572       6.59104063      15.27814278      -0.05404909      -0.02965560       0.00090517
Ar      14.65513865       6.38253104       0.28529606      -0.11192598      -0.07829575      -0.00367513
Ar       1.07076544      16.88806866      12.05793128       0.00141559      -0.04898175      -0.03076891
Ar       9.38420532       5.16216844       2.59312664       0.01535569       0.08363178      -0.12304957
Ar       6.77080802       6.51069323       0.58005705      -0.02751664      -0.12981187      -0.00679849
Ar       0.12515641       4.20211803      17.10585596      -0.03554259       0.04328948      -0.05091381
Ar       2.66981320      15.58782528       0.84358268      -0.06056596       0.07545054      -0.02133135
Ar       4.20701599       5.48061312      10.94766314      -0.08320623      -0.08871030       0.04971129
Ar      14.51975730      17.26094049      12.70982971       0.11463407      -0.04771744      -0.10419190
Ar       5.36958203      10.17533996      10.73768877       0.10503670      -0.00823871       0.03053422
Ar      15.90779919      14.79178693       5.20976529       0.03985655       0.03739257       0.03055946
Ar       1.78616237       3.03449041       3.51204426       0.01959157       0.04904740      -0.05160913
Ar       8.54954649       2.16223290       3.62920272       0.05768723      -0.07733814      -0.00041136
Ar      15.04878498       7.84765608       5.91627239       0.03127549       0.04551822      -0.05093843
Ar       5.88087795      14.12839916       9.19211025      -0.05321353       0.06743265      -0.07441342
Ar       2.68401143       0.36111146      15.21140289       0.05964775       0.05664494       0.01616920
Ar      14.39236773       5.35906679      14.24891020       0.01642614       0.04131634      -0.01288184
Ar       2.31043721       3.81424224      13.65349102       0.02254427       0.05098671       0.07620881
Ar       1.78299019      16.82562946       4.00518948      -0.08452114      -0.02469967       0.00393176
Ar       5.65124867       3.19750595      14.02254218       0.03764790      -0.13739361       0.01525134
Ar      15.67306065      16.01673666       9.38757054       0.02660412       0.00133539       0.04685507
Ar       4.61432957      11.19898847       5.93790560       0.00473755       0.07746966      -0.04040551
Ar      11.62167919       7.33283804      12.80245697      -0.03360227      -0.01403716      -0.01311622
Ar       0.29523320       7.07796681      14.44287319       0.05060452      -0.08330892       0.06195166
Ar       3.02536476       5.93359037       1.12855946      -0.03358067       0.06180814       0.03781155
Ar       4.33866715       2.16913924       0.40185003       0.04308046       0.01530438       0.06551079
Ar       2.98413510       9.07779096      12.89051286      -0.02955516       0.08735016      -0.00132883
Ar       4.66860627      14.77305183      14.97971115      -0.01908937      -0.00806432      -0.01177446
Ar      16.90337261       0.90047689       6.13310070      -0.03486326      -0.00886648       0.05068552
Ar      10.99864551      16.69548792      14.01837667       0.06897061       0.05609562      -0.00907176
Ar       3.04055371       2.17257589      10.59995230       0.01247132      -0.00169475      -0.04452970
Ar       8.04048669       6.01209971      13.66018942       0.02206569       0.03158253      -0.00286646
Ar       9.18532855       5.13595694       6.85120859       0.09418221      -0.07086158       0.00462574
Ar      14.63053557       0.34573566       1.93866963      -0.05657907      -0.01012600       0.06610715
Ar       6.65093283       3.74891870       9.09135083      -0.03252835      -0.07868342      -0.01187956
Ar      16.67445986      12.86016208       8.58139669      -0.04535207       0.03170784      -0.01983727
Ar      10.32236077      16.60722781       6.43311132       0.05308187       0.03149072       0.06183862
Ar       4.83127495       8.70845616       3.21725948       0.04112297      -0.02597206      -0.04594069
Ar      11.40860560      10.34049269       0.71982446      -0.06604761       0.00430097      -0.04235335
Ar      11.28960084       5.52375490      16.80241023       0.06345683      -0.03195483      -0.04151059
Ar      10.50317967      12.07996164       9.53962227      -0.04176175       0.02927525       0.04945988
Ar       0.55882456       0.87445824       0.99103651       0.05596116       0.04984672      -0.00426003
Ar      11.37059022      12.23046673      14.07075124      -0.01106751      -0.03727154       0.09749616
Ar       9.20004068      15.68576980       3.30177543      -0.04009268       0.00486878       0.03633985
Ar      12.37088399       7.22666297       3.09901290      -0.06408939       0.01796882      -0.07217712
Ar      16.31928504      11.43108372       4.05245090       0.05522510      -0.10109905      -0.00854624
Ar       1.63994637      13.19208138       5.03710303       0.02196931       0.12364514       0.05098043
Ar       5.56179582       9.89540074       0.16393665       0.02921998       0.02965297       0.00277397
Ar      10.62123384       8.41943295       8.69763618       0.03798880      -0.02678302      -0.01434763
Ar      15.61543155       3.83012597       2.81795949      -0.00299747       0.03721877      -0.02551507
Ar       4.97284566      16.94516333      12.37535164      -0.04946216       0.02698393       0.05533845
Ar       5.13095833       1.98111361       5.49863456       0.07396797      -0.02920075       0.10941868
Ar      14.70505164       6.90285392      10.73660904      -0.05300584      -0.01885547       0.02065649
Ar      16.79687415      10.98332206       0.60768749      -0.09268482       0.00870352       0.05340842
Ar      16.36189913       4.28587146       6.75090076      -0.01497810      -0.02791463      -0.01398794
Ar       5.65951553       5.79534647       6.15966145       0.01856344      -0.02490615       0.03630738
Ar      13.36834049      10.94753129      11.48544713      -0.07439723      -0.04318252       0.03630252
Ar      11.08951245       3.50181478      14.18263643      -0.04541411       0.03060433      -0.07338982
Ar      16.78715459      16.48386458      15.22220207       0.01691162       0.02535045      -0.02264210
Ar       1.01427913       9.73875129       6.46763245       0.05085314      -0.03232773      -0.07211218
Ar      16.57930990      14.42918479       1.53727225      -0.00200679       0.03421848      -0.00322322
Ar      13.00747474      14.35354477       7.75849562       0.03550383       0.01949103       0.03966891
Ar       2.14254708      15.52906811       8.58444596       0.01050287       0.02904222       0.01550189
Ar       8.42853383       3.08927788      16.68233031      -0.09956785      -0.01259541       0.00323664
Ar       2.02866322       9.08516504      16.73002686      -0.02829558       0.10632463      -0.15155301
Ar       2.42717351      13.62749585      12.24568185      -0.01293010       0.00212606      -0.01102967
Ar       4.65825658      15.16735702       5.73864219      -0.05768566       0.04953433      -0.02872221
Ar      14.69546248      13.02348948      15.45375727      -0.07474412       0.01176833       0.00952522
Ar      15.94671485      13.99448511      12.23802920       0.07880995       0.03632376      -0.06574644
Ar       8.29807861       9.66076111      12.36986555      -0.10748849       0.02754806      -0.08943719
Ar       9.04782228       8.64964180      15.92288066      -0.00674095      -0.00836654      -0.00646422
Ar      10.01107813       4.88247330      10.96291108       0.09926580       0.03393649       0.02127263
Ar       8.61646956       8.64785222       2.76400277      -0.00825059       0.01105899       0.08865819
Ar       1.25356982      13.59420980      15.65275279      -0.00037667      -0.03749609      -0.00349927
Ar       7.20816193      16.86604622      16.77091750      -0.02427515       0.07777464       0.01752578
Ar      17.20783656      10.96646704      13.89388512      -0.02732223      -0.10603450      -0.00843583
Ar      13.48477951       0.62721469       7.23994197       0.03001009      -0.02408669       0.04895636
Ar       5.44946009      11.38382129      14.16328422      -0.02069275      -0.01310912       0.01292545
Ar       5.88258728      16.56996986       2.79413756       0.07898832       0.07201271      -0.07053136
Ar      14.37094486       9.51293760      15.63441042       0.06325112      -0.02702298       0.04662126
Ar      16.55091800       2.42060185      13.67668659       0.02261469      -0.02656224      -0.05075878
Ar      16.52023039       2.12184231      10.16093386       0.01896131      -0.03665953      -0.02994928
Ar       8.62223301      13.11377381      16.76400087       0.01867234      -0.03847558       0.04792815
Ar       1.39533142      10.26833091       9.83000813       0.11956855       0.02761186      -0.05072974
Ar       8.15644879      15.14702373      13.05113064      -0.13324811      -0.06542655      -0.05435675
Ar       8.38234855       1.44866096      12.40378210       0.03614635      -0.04056274       0.10706770
Ar       8.31149569      13.21065182       6.73542215      -0.04904601      -0.08036264       0.00812880
Ar      14.78628512       9.74555588       8.55755486      -0.02515715      -0.05492183       0.08066689
Ar      12.19107494       2.11021192      10.98333378       0.09191517      -0.07911643      -0.07645750
