108
Lattice="17.35 0.0 0.0 0.0 17.35 0.0 0.0 0.0 17.35" Properties=species:S:1:pos:R:3:momenta:R:3 pbc="T T T"
Ar      11.30375851      16.69090857      10.59037892      -0.00570083       0.02511243      -0.03493629
Ar       8.14884221      12.88863466      11.17595185      -0.04684329       0.02880101      -0.04768642
Ar      14.63030619       1.88075744       3.28640773       0.11287307       0.06100622       0.07433455
Ar      16.19465517       6.40969067      15.43262470      -0.04616882       0.07628961      -0.03373237
Ar       4.77362504       7.73204421       6.39488063      -0.02978336       0.03863656       0.05518780
Ar       6.40825948      14.57717144       4.48259105       0.04912213      -0.00228259      -0.03403971
Ar      11.34089374       4.53040477       6.77285544       0.01771334      -0.02258815      -0.00357631
Ar       8.12304148       7.01870993       3.72284182      -0.03114088       0.04768763       0.02225235
Ar       5.18030564      15.14438227      10.95404449       0.00623980       0.01923850      -0.00642775
Ar      13.67411010       0.58377958       0.29135422       0.03076452      -0.00203083      -0.03025872
Ar      15.80533259       6.67305800       7.31790355      -0.01482129       0.01965445       0.03235418
Ar       1.45925129       4.38412315       8.18750641       0.04002913      -0.09196143       0.05795371
Ar      11.48023713       6.32064634      16.83865294      -0.04537992       0.01971954       0.05451609
Ar      10.92079573       2.36481618      17.24174281       0.06501155       0.05403793       0.00081452
Ar       1.61219346       9.92141416       1.98871410       0.08786227      -0.00468535       0.01901294
Ar       4.78103852       8.91850115       3.09285920       0.02285461       0.02462542       0.02541888
Ar      11.29918752      13.37228360      14.40818093      -0.04175812       0.07902144      -0.03291790
Ar      12.35737364      12.28840765       1.85157113       0.06623506       0.02316039      -0.01919350
Ar       5.41421858      16.46702395       7.75023690      -0.07515961      -0.00079001      -0.04197089
Ar       6.89417787       3.88159409      11.77000787       0.00376531       0.00868841       0.04323652
Ar      14.41183921       5.75505232       4.37355146       0.02573636       0.03858757       0.01408050
Ar       2.56094970      15.49035131      13.31548416      -0.05340023      -0.05300278       0.11819214
Ar      10.78269703       9.01052194       5.21011592      -0.01197779       0.07208200       0.07876000
Ar       5.79410125       1.37568425       3.62296158       0.00664872      -0.00919514      -0.00051293
Ar       1.29062706       2.88832135       0.31269490       0.11166592      -0.00962126       0.10491373
Ar      15.55953855      10.53361042      16.70120575       0.02270824      -0.03683763      -0.05312674
Ar       3.22608627       5.14971561      13.75779544      -0.02987883       0.01486261       0.00131531
Ar      14.33576075       0.82230072       9.74013009      -0.03326948      -0.01300896       0.07931952
Ar       5.77433320       9.99392318       9.90960882      -0.02056851      -0.08144556      -0.00809997
Ar      16.92490132      16.47673069       4.14299119      -0.06662839       0.02953789       0.00098804
Ar       0.02484770      16.95297618       0.41615890      -0.06545341       0.03320534       0.02235053
Ar       8.08252445       3.50159561       5.67287139      -0.03415195      -0.04233291      -0.01258845
Ar      11.51354855       7.92390239      10.08707637       0.07162047      -0.00102906      -0.04672262
Ar       8.28031634      13.46009309       7.90505075      -0.08470091      -0.01065466       0.03207290
Ar       3.52256098       0.06144867      16.47508035      -0.04058775      -0.01803742      -0.05754201
Ar      17.05046159       2.75529773      11.09570180       0.01001236      -0.03111100       0.04559479
Ar       6.27319740       5.07869687       8.72535932       0.01054869      -0.06421720      -0.17186806
Ar       2.29681693      13.76673364       0.15814578      -0.02722021       0.05616413      -0.05557399
Ar       5.50826985       8.40147460      14.30399168       0.11042317       0.09885212      -0.00665364
Ar       0.14428873      16.17037182      10.10087590      -0.03468404       0.03641819       0.19036238
Ar       3.41139273      11.43283469       6.55352577      -0.05845116       0.11310043       0.01242698
Ar       9.59956448       1.86368075      12.77827949      -0.05946397      -0.00077835       0.01066965
Ar       7.54291235       7.25296573      11.63447891      -0.04047777      -0.04890586       0.02702832
Ar       3.31119677       7.11754501       0.38349344      -0.01885206       0.00735611       0.02130982
Ar       5.03434535       3.70588727      16.48157472       0.07449305       0.05433976       0.00466440
Ar       0.43707676       9.96538225      11.84722477      -0.03668362      -0.05747253      -0.10696370
Ar       6.04227512      14.88906637       0.91433205       0.03557808       0.05145665       0.02740958
Ar       2.87510293      16.16952978       2.67393202      -0.00862151       0.07516472       0.00040221
Ar      14.15250310       2.40825334      12.83554905       0.11878755      -0.00443397      -0.10673951
Ar       2.99419044      15.07880727       5.97227368      -0.00292458      -0.02134963       0.01319896
Ar      12.03215056       5.79111517      13.48466915       0.00498316      -0.06684276      -0.06620756
Ar       8.84113231       6.98012433       7.63109142       0.08622653       0.01143313       0.00085437
Ar      13.13851914      16.00130914       3.29949349       0.00146803       0.02229199       0.03034630
Ar       6.03727440       0.54556274      12.93474644       0.01358616      -0.05875190       0.02808156
Ar       0.19180068      12.62829774       5.33040271      -0.04968027       0.01002268      -0.06227074
Ar      10.00624954       4.53779569      10.37215529      -0.07552880       0.03091135       0.03557011
Ar       3.96631153       5.09800512       3.26366117       0.07014404       0.01607456      -0.08157317
Ar       9.92405024      13.79479985       4.18345729      -0.01929739       0.01155349      -0.02161014
Ar      11.16561211       5.44591768       3.22732317      -0.08612777       0.04570380      -0.10785151
Ar       6.95680086      10.68452449       5.38452784      -0.07040024       0.07577901       0.04132664
Ar      14.97293267      14.87279613      16.12125162       0.01198685      -0.10332776       0.05320383
Ar       8.92131508      11.31048901      15.97415291       0.03953300      -0.06275004      -0.01791770
Ar      11.88973724       0.57064835       6.33379078      -0.03054323       0.01148300      -0.01531866
Ar      14.01452380      14.12748900      10.98608672       0.05255192       0.00123774      -0.00217384
Ar      15.82892630       9.10231144       4.51902933      -0.00179725      -0.10921821      -0.03124375
Ar      16.34652193      13.31343301       1.64668830       0.02156733      -0.00150343       0.06077815
Ar       6.97337251       7.67331492       0.05537460      -0.04809127       0.07513707       0.05494621
Ar      13.27921470      11.82884584       5.42104861       0.03919847       0.03433078       0.01405670
Ar      13.93596343       4.87110572       1.07328342      -0.08263381       0.01697688      -0.04036755
Ar       1.87370622       1.78761736      13.89870947       0.01937352      -0.03579249      -0.00625068
Ar       4.55562243       3.08254655       6.62834669       0.00159909       0.06841071      -0.02661589
Ar      10.80838424      10.87356264       8.33643442      -0.06099766      -0.08420307      -0.07484122
Ar      12.10984161       9.93294529      16.33594050      -0.05109130       0.01573148       0.01591411
Ar       1.48738120       1.98827718       4.24805124       0.04215463      -0.02092053       0.05550159
Ar       2.74367487       7.90157600      10.12824554       0.03584161      -0.01979468      -0.03237022
Ar      10.66495856      10.74354004      12.32227358       0.01661375       0.01513893       0.01363429
Ar       8.30436199       4.81252189      15.23569944      -0.11759821       0.04743118      -0.00292546
Ar      16.11573351      17.01803274      13.25920672      -0.07741988       0.07279648      -0.02638457
Ar       1.12436441       5.86342130       4.93765486      -0.02308911      -0.02370190       0.00705400
Ar      10.38161236      15.23892125       0.40825355      -0.02289081      -0.00081167      -0.04253176
Ar      11.63425911      14.32297351       7.87240121       0.07063753       0.06865221      -0.02902579
Ar       3.56369770      12.35270803       3.19230217      -0.01480527       0.00905205       0.00292264
Ar       7.34050892       4.24662825       1.60194050      -0.00170071      -0.00225702      -0.11279288
Ar      16.96507924       6.73930254       1.52147953      -0.00700254       0.07148496      -0.03840980
Ar       3.38900258      11.56916231      12.33118466      -0.07221530      -0.14229656      -0.07379253
Ar       7.70841179       1.01625991       9.68093415       0.05108413      -0.04593434      -0.03868750
Ar      14.11669771      11.29569436      13.44796356       0.05107995       0.02662858      -0.01488509
Ar      15.01291693       7.66364389      11.32775045       0.04536320      -0.02108706      -0.02825654
Ar       7.40242364      11.82075727       1.97189664       0.02866007       0.00404227      -0.07192650
Ar       9.39612991       8.08315328      14.68546932      -0.02616570       0.04159319      -0.01059045
Ar      15.49328299       2.67986408       6.71442125       0.00985629      -0.17631650       0.01470132
Ar      13.09953443       8.80805488       2.01874689       0.02353717      -0.03271221       0.06563817
Ar       0.36519106      12.51819050      14.50757772       0.06257648      -0.00452643       0.06852929
Ar       8.41856939      15.56243424      14.04111111      -0.00541482      -0.02395074       0.01370100
Ar       1.26139727       9.05284263      15.34874775      -0.09590260      -0.03917326       0.01267402
Ar       1.60655049       0.75106395       7.40410087       0.07750803      -0.01801334       0.08351044
Ar       4.16956307      10.53169338      16.57011036       0.08256003      -0.11708729      -0.03291158
Ar      10.04942874       0.36357356       3.08162157       0.01796196      -0.05961096       0.03655995
Ar       9.92778467       9.23051284       1.50350484       0.07799410      -0.01702132      -0.02775689
Ar       3.66576731       1.80553210      10.68800319       0.00455225       0.03836563      -0.01083324
Ar      14.13592829       4.57979018       9.74852548       0.04506852      -0.09854165      -0.02188089
Ar       7.73160568       0.94156728      16.21053825      -0.08966686      -0.01690863       0.03001744
Ar       0.89972696      12.73756620       9.25451011       0.01188582      -0.00523003       0.01379297
Ar       5.70239812      13.01534324      14.42755018       0.03530040      -0.00630654      -0.00309007
Ar      12.09953995      16.94627643      14.54171507      -0.02232274      -0.04435989       0.11977180
Ar       8.69594601      16.57147286       6.60112791      -0.06764777       0.06958959       0.00734459
Ar      15.29391895      10.76344240       8.87003884      -0.03905749      -0.05046437      -0.02536959
Ar      15.05930745      14.87726153       7.20737424       0.07069367       0.01852900       0.03922248
