108
Lattice="17.35 0.0 0.0 0.0 17.35 0.0 0.0 0.0 17.35" Properties=species:S:1:pos:R:3:momenta:R:3 pbc="T T T"
Ar       7.65454195       2.34019897       7.63503279       0.00247989      -0.05112827      -0.02238869
Ar       9.10108130       7.26050104      11.49439330       0.00238354      -0.06358324       0.02334621
Ar      10.90467078       3.73614188       5.25864443       0.05882085       0.02725548       0.06027954
Ar      16.43285758       7.60552620       5.17734360      -0.07413228      -0.02815251      -0.07188339
Ar       8.44703910       3.59336245      11.54464797      -0.08171240      -0.00970760      -0.00548148
Ar       4.10256702      14.39431841       3.73527609      -0.03854777      -0.06802951       0.04473714
Ar      14.94731124       3.72679063       3.89746400       0.03963846      -0.07521562      -0.04916044
Ar      14.10067580       5.33178795       7.03856839      -0.07443123       0.07622424       0.02458097
Ar      10.09559093      17.28602660       5.24292819       0.01633084       0.09884487       0.13144320
Ar      15.05689855       6.27421791       1.50029103       0.02730463      -0.02389153      -0.03060002
Ar      13.12161710       9.71363882       7.61746680       0.08186311      -0.07584344       0.01706037
Ar       2.73353598       2.31069376       8.91955970      -0.03937771      -0.05749130      -0.01369990
Ar      10.81368037       5.61140583       1.77741441      -0.04790518      -0.02116931      -0.05295078
Ar      10.20568561       6.61500228       7.02786220       0.10115411       0.01040955      -0.08510096
Ar       8.10673278       2.29579606       2.50734319      -0.07523759      -0.06202121       0.08678029
Ar       1.69059834       4.67038806       6.39703362       0.07355278       0.06367731      -0.02403379
Ar      10.18945267      11.32822353       5.22699614       0.04681468       0.12008913       0.08338670
Ar      11.65665377       1.87454807       2.05884221       0.04748875       0.05007525      -0.05600824
Ar       6.57064397       5.86684184       7.90580973       0.02533045       0.01735544      -0.02653664
Ar       1.46285829       6.11045902       2.44019345       0.04207741      -0.03573189       0.03431667
Ar      12.68582562       7.32395831       4.65884810      -0.11608629       0.01162422       0.02014986
Ar      13.37755659      15.82925722      11.45025632      -0.06579556      -0.00168142       0.00829442
Ar       4.93153646       3.38503019       6.00595084      -0.04992391      -0.01750836       0.05234579
Ar       4.26726502       7.15005930       4.91834702      -0.05137735      -0.02430390      -0.00194521
Ar       0.59017599       2.87943375       1.20166041       0.01070900      -0.00635549      -0.12531492
Ar       7.59744816       1.07093235      16.18944610       0.04615250      -0.03867567       0.02245303
Ar       4.68368729       2.06978239      14.82512028       0.06332393      -0.10481853      -0.08584848
Ar      10.74573786       0.27900436      13.82315777      -0.05546383       0.09693132       0.01318361
Ar       0.91250510       0.22251888      16.27634493      -0.02954332       0.07670781       0.04649346
Ar      13.61779237       0.29865370       4.72641268      -0.04382386      -0.05689645      -0.03756296
Ar       7.65796136       5.30269626       0.71111469       0.05923346       0.01574243       0.03834294
Ar      11.85623902       3.96906483      10.00137965      -0.02096247       0.02467507       0.02340496
Ar       6.08849568       9.26376339       9.68077834      -0.03700909      -0.01019740      -0.06699238
Ar       7.32136783       4.50175649      14.80901260      -0.04020671       0.07778495       0.00987022
Ar       2.73636210      16.79743620      11.46669851       0.06022601       0.05695493      -0.09030067
Ar       0.87873613       7.40344640      12.81594250      -0.01340988       0.00604051      -0.01478622
Ar       0.46937444       4.01579089      15.47338605       0.04702536      -0.03989799      -0.01637866
Ar       3.34747679       0.38289980       1.99328298      -0.04031825      -0.02287787       0.08534818
Ar       5.18468743       5.74876675      11.16411434      -0.08554341       0.04768528       0.00010084
Ar       9.66678679       0.56521762      10.20351176      -0.05541399      -0.08449662       0.11931314
Ar       2.78748873       7.19185407       8.56134996       0.07790818      -0.00927131      -0.09532281
Ar      13.24391328       7.24825072      11.22891191       0.06684724      -0.13428845      -0.04949592
Ar      15.41710246       1.99118729      12.53972110      -0.13619620       0.02280242       0.02554131
Ar       7.78684260       5.76079462       4.35713741       0.04509941       0.04642582      -0.01644353
Ar       4.59636361       4.05141312       1.80946345      -0.03878945       0.03994080      -0.00923882
Ar      15.84020709       9.39111943      10.16157917      -0.02036832       0.04964361      -0.05790112
Ar       1.82844966      10.24531667      14.70631288      -0.11658395       0.02736156       0.03898810
Ar       1.43220740       2.61467487      12.31562100       0.06477002       0.00498463       0.01027295
Ar      10.89042971      10.66769974      15.48141958       0.11968297       0.02751307       0.02935891
Ar      17.13585323       5.60336879       9.63791421      -0.04233346       0.03640085       0.00021682
Ar       9.99955429       6.58102136      15.16340072       0.02565609       0.02876229      -0.01642880
Ar      11.95015330       4.09430731      13.21793027       0.14445387       0.06085356       0.03552634
Ar      16.69923453      10.45587202       0.78187026       0.02289282      -0.02973245      -0.06087627
Ar       7.55109017      16.25745504       8.03001419       0.00522000       0.10917851      -0.01053176
Ar      17.26273740      10.94963155       7.18321887       0.05680528       0.09948797       0.00729872
Ar       0.35971862      16.52349949       9.14623134      -0.00503033       0.03901086       0.05885216
Ar       3.53767885       8.82242818       0.36946297      -0.02981451       0.04993930       0.01301678
Ar      10.47540448      12.14003047       1.11007357      -0.02891346       0.09943004       0.05200795
Ar      13.70636450      13.06537504      17.23985722       0.07013068      -0.01323406      -0.02511747
Ar       6.76931127       9.26576345       6.29190458      -0.03195400      -0.09373015       0.02112462
Ar      15.58237944      16.92485523       1.19021486      -0.01891641      -0.07061343       0.07159790
Ar       8.61415590      14.09210235       3.53817426      -0.01064873      -0.03084585       0.01490184
Ar      10.41952154       3.24666453      16.39335428       0.04426584       0.01750904      -0.02075499
Ar      12.48090978       8.89130326       0.79072387      -0.06543864       0.05848819      -0.00827165
Ar       3.32330896      10.74662971       6.62668470      -0.00075568      -0.02971996       0.00743037
Ar      14.91667702      15.17504776       6.50464791      -0.04569256       0.04243019       0.03954032
Ar       2.91815927      12.30506627       0.71352566       0.03677108      -0.06338133       0.00479904
Ar      14.98271980      10.77145651       4.05334244      -0.02813990      -0.03719916       0.02920561
Ar      17.30597099       0.87849365       4.16221186      -0.01545937      -0.04023992      -0.03781719
Ar       8.63467966      13.89124865      15.56895770       0.01120023       0.02031570      -0.07449325
Ar       6.73071662      16.87825634       4.36497763       0.01497331       0.05103973       0.08138717
Ar      11.15644539      13.88139105       7.55067720       0.01917373      -0.07390569       0.01549004
Ar       0.26608242      13.86921898      16.50834055       0.03716248      -0.01341325      -0.02599922
Ar      16.44751739       2.33124643       8.34166838       0.03346347       0.09973988      -0.05792371
Ar       5.81287130      11.27826506       3.20697714      -0.01883691       0.08322010      -0.05749375
Ar       9.96824498      10.35250367       9.13621173      -0.01539705       0.02942117       0.00850897
Ar      12.47832936      13.30400803      14.00252988      -0.00670069      -0.05032496      -0.04874402
Ar      14.17078917       2.52285786      16.36728606      -0.07353390      -0.02923350       0.03748819
Ar       9.61089472       8.44531656       3.40193576      -0.05130662      -0.06776290      -0.01151140
Ar      12.18150855      14.51112829       3.78877692      -0.11307064      -0.05944333       0.03286083
Ar       0.37729770      13.53535287       3.73451603      -0.02208950      -0.02125072      -0.01213758
Ar       3.14325590      17.01950739       6.44209408       0.06706816       0.08797043      -0.04291518
Ar       6.56867748      16.13636016      13.44358176       0.04650051      -0.07728506       0.03513344
Ar       0.16805466       7.46258822      16.39771634      -0.06823843       0.10249903       0.00906221
Ar       6.72251049      13.32608842      10.89630857       0.09370928      -0.03790214      -0.14141264
Ar       1.04210474      10.09583086       3.99026122      -0.05762650       0.00607192      -0.07881907
Ar      12.60951915      10.79166272      11.68322575       0.02259614       0.00992563       0.01844975
Ar      16.03262768      12.35683010      12.49676589      -0.01309435       0.04568488      -0.00786093
Ar      14.52781847      12.94678275       9.59424139       0.04759316       0.01313777       0.12491035
Ar       5.21032548      12.17090688      15.22009940      -0.00883514      -0.15550538       0.00911415
Ar       3.79595766       5.85882252      15.39518293       0.07068423      -0.00794173       0.00287339
Ar       7.51595382       9.25739940       0.48594323       0.00472178      -0.04250900      -0.00894917
Ar      14.44381349      10.17028576      15.22571437       0.04137935      -0.01277703       0.05516797
Ar       2.63258262      13.35759471      12.71068549      -0.01279629       0.07494741       0.03783712
Ar       2.90870859      13.74676836       8.78088935      -0.05358470      -0.00360071       0.01976425
Ar      13.03108820       1.22555005       8.43779946      -0.02604935       0.02611503      -0.00155408
Ar       5.90942833       8.54063006      13.37945051      -0.06951722      -0.05549146       0.01818093
Ar       6.49229941      15.54458837       0.88412597      -0.05773254      -0.04733397       0.01855135
Ar      14.22328171      16.37797578      15.18322738       0.00521813       0.05279618      -0.06303628
Ar       3.69849851      15.49392706      15.91241677       0.10543379       0.05090024       0.00180342
Ar      16.97643058      15.99056527      12.69282883       0.02132088       0.01493240       0.03013953
Ar      10.34257548      15.93436448       0.77978303       0.04091793      -0.07503748       0.00500933
Ar       2.07203811      10.40502231      10.46774417       0.08037941      -0.05255757       0.00855763
Ar       8.90158899      10.96884592      12.67877550      -0.00579056       0.00409992      -0.02897593
Ar       5.91940892       0.98464042      10.59319016      -0.00525645      -0.07152873      -0.03801180
Ar       6.97157227      13.16078341       6.58232232       0.06559375      -0.00819134       0.00444153
Ar      10.22065394      14.37624472      11.17109156       0.03099958      -0.03099458      -0.04934975
Ar      14.96467855       5.90933916      14.75404818      -0.04178863       0.01486379       0.05471908
