108
Lattice="17.35 0.0 0.0 0.0 17.35 0.0 0.0 0.0 17.35" Properties=species:S:1:pos:R:3:momenta:R:3 pbc="T T T"
Ar      10.81220253      16.75339445       7.95905371      -0.04528829       0.01675463       0.03135952
Ar       7.31831950      10.66704052      11.75901479       0.01168547       0.02198983      -0.02142432
Ar      13.81805079       3.15402266       4.03246791       0.04118223      -0.06523289      -0.00329279
Ar      16.16325146       5.44335410      16.63820397       0.03430933       0.03665651       0.03500040
Ar       5.76149696       5.90299756       8.52269817      -0.00287554      -0.01545740      -0.09800770
Ar       6.04442548      13.21733807       3.07499546       0.03471449       0.11206838       0.00210115
Ar      12.55573682       2.41693337       7.56716944       0.00546057       0.06538957      -0.06523646
Ar       7.50449715       8.18177287       5.40641679       0.01367512       0.00391137      -0.02779962
Ar       6.64539860      14.91572875       9.16828750      -0.02747515      -0.06245030       0.04052436
Ar      15.05784466       0.80686670      17.29421819      -0.04463112       0.09406029      -0.01495122
Ar       0.54523629       8.88794028       9.22736545       0.06520572       0.01806666      -0.04323887
Ar      16.79544959       5.20268944       9.82209807       0.06321055      -0.04158280      -0.08679193
Ar      12.73190452       4.18890000       0.84887885      -0.00076129      -0.05154131      -0.03553858
Ar      11.67040415       0.84211739       0.71064709       0.00324740      -0.00417425      -0.04815441
Ar       3.30754832      10.07235414       1.06532504      -0.01485669       0.06670958      -0.11666793
Ar       3.35427516       8.10125248       4.84138799      -0.06026930      -0.00255429      -0.04139001
Ar       9.89075101      12.84266377      10.09842834      -0.08597492      -0.02187388       0.02525962
Ar      13.16739401      11.84360127       2.24041354       0.04636805       0.06027438      -0.08273948
Ar       3.32684830      16.08597890       8.18294930       0.05657982       0.02130806      -0.03100499
Ar       7.27300286       4.87201121      15.66071255       0.11394589       0.02305952       0.00341308
Ar      16.35170812       6.08190835       4.99086544       0.05845548       0.03375471       0.05845939
Ar       1.61944054      15.75615319      11.89358990      -0.00167817      -0.01850491      -0.06389948
Ar      12.39694848       5.71208613       6.00640699      -0.01238909      -0.05166566       0.01070308
Ar       6.41210773       2.56552486       4.80197286      -0.05765195       0.00076038      -0.05587792
Ar       0.85715929       1.75249604      15.89219937      -0.03237892       0.03700404       0.00715728
Ar       0.30453493      11.45490340      16.65718038      -0.12881242      -0.09672855      -0.04803884
Ar       2.55674287       6.71591265      11.54165651      -0.01435219      -0.06587270      -0.00946350
Ar      13.03439995      16.81869815      10.83214330       0.08740647       0.01365962      -0.02821929
Ar       4.15301355       9.40597734       9.31244118       0.03047013      -0.04565512      -0.00266833
Ar      17.31652006      16.27132151       3.29422507      -0.03412293      -0.07853074      -0.01989932
Ar       3.07125365       0.36644313       1.28977143       0.10403434      -0.02696372      -0.00009945
Ar       9.29972882       3.87432937       6.19447089      -0.05037220       0.04724093       0.05506003
Ar      14.17184909       7.44190972       9.18073063      -0.03583242       0.09207599       0.08794632
Ar       4.22015971      12.94242367      11.07966805       0.02953329      -0.07360451       0.05080175
Ar       3.14217961      16.24637920      15.50987154       0.04628699       0.03097824       0.02572661
Ar      17.00066337       4.86785191      13.36032240       0.01825864      -0.01596517       0.08929016
Ar       3.49714284       3.20839808      12.49496438       0.00828657       0.06846032       0.02247641
Ar       3.05082752      13.95558436       1.10668113      -0.04902377      -0.06021283      -0.07329979
Ar       3.56732473       5.23203968      15.09668540      -0.04393389      -0.01969103      -0.01623505
Ar      15.91691407      14.52728894      10.34038113      -0.00983696       0.01286054       0.03006058
Ar       4.81599133      11.08779798       5.58043886      -0.03793065      -0.04516305       0.05399171
Ar      10.44743801       2.62097223      15.07639321      -0.09205759      -0.01817404       0.02637918
Ar       6.57732617       6.98036027      12.20912620      -0.08923341       0.03759074      -0.02960970
Ar       3.49861747       4.81496315       1.43737732       0.03656055       0.04291428       0.00046388
Ar       5.26920171       1.83034900      16.23431373       0.06370173       0.00417746       0.00569888
Ar       1.91866492      10.28156007      12.09748531      -0.00117920       0.03408719      -0.01921729
Ar       6.52325806      14.52233937      16.41561206      -0.01528457       0.02797963      -0.00439841
Ar       3.14668891       0.59774006       4.86657104       0.06442446      -0.08153363      -0.04939155
Ar      14.30438846       3.14535455      14.49164968       0.01127338      -0.15420256      -0.05039258
Ar      17.28272662      16.35191325       7.34428995      -0.01764937      -0.09431032       0.06190100
Ar       9.64983764       5.65071610      12.98707952      -0.05021697      -0.00003406       0.09676908
Ar      10.26322386       7.00824415       9.92937177      -0.11177440       0.02088259      -0.02514310
Ar      13.72762159      15.59043534       2.35379349      -0.01708778       0.05818839      -0.01183875
Ar       6.69203820       2.65467238      12.59456870       0.10414733      -0.05212598      -0.01999472
Ar      15.24539013      13.57921796       5.11077612       0.00300084       0.07275852       0.01742558
Ar       9.17563845       2.83531877      10.22759056      -0.03446008       0.07860060      -0.00201248
Ar       6.62891493       6.04862355       2.50835000       0.03318277      -0.10516729      -0.04123465
Ar       9.47528528      14.51489228       1.37335572      -0.03267397       0.04622994      -0.03208508
Ar      10.04003197       6.06207428       1.71289849       0.01089033       0.01281687       0.04724243
Ar       7.39314022      12.16775359       7.62120891       0.03197484      -0.11683164       0.00481610
Ar       0.06651536      15.33571964      17.09391362       0.01002624      -0.08862282       0.02209772
Ar      10.97176903      13.03653932      14.50122998       0.07259243       0.04817084       0.01424636
Ar      10.32260295       0.51784621       4.43039316      -0.08801078       0.03212446      -0.00492718
Ar      12.80125282      13.81208103       7.95475689       0.01653371       0.04002256       0.06244664
Ar      14.25150740       9.19127469       5.07824633       0.00508372      -0.06929117      -0.04491992
Ar      17.30665072      12.52264084       2.52686881      -0.11739326      -0.06140517      -0.00287740
Ar       7.31030341      10.01641937       1.80350452      -0.00166415       0.05144407       0.04853243
Ar      10.73616974       9.60221024       4.43279113      -0.03412086       0.03647596       0.00748515
Ar       0.27218105       3.20197915       1.80694037       0.09583937       0.07798010       0.03241865
Ar       5.10112108      17.10180764      11.78714032      -0.06729091       0.05056668       0.01763187
Ar       2.27081352       2.00100194       7.96963335       0.01153210       0.06821137      -0.00402858
Ar      11.81898186      10.25137379       7.48809083      -0.00593697       0.11059866      -0.05259599
Ar      14.35538846      10.37712440      15.46561584      -0.02285317      -0.01408527      -0.09058334
Ar       2.61873981       3.97860026       4.54951003       0.05899033      -0.04115113      -0.04860280
Ar       2.33837894       6.32542605       7.60166166       0.00431692      -0.12005380       0.05706025
Ar      10.62708250       9.37932197      12.88697431      -0.04230738       0.04788043      -0.02138467
Ar      12.14882615       6.28185428      15.41519042       0.04874684       0.02914594       0.14684432
Ar      15.69884108      16.20679720      14.09099185      -0.01909842       0.02315538       0.02526334
Ar       0.38596675       9.94242647       5.88897022      -0.07936931      -0.01909722      -0.03506308
Ar      14.32731181      13.70699801      16.55204799       0.00669218       0.04488855      -0.05605096
Ar      10.20763872      13.52368569       5.19331897       0.06251284       0.01395084      -0.01388768
Ar       2.02976567      14.29042654       5.44235795      -0.00816133       0.05995264      -0.01143507
Ar       8.67909623       2.79524793       0.98496571       0.08036382       0.02559468       0.10640863
Ar       0.10526837       8.56088529       2.25215772       0.02234950      -0.03885615       0.01766334
Ar       3.72815132      12.67986663      14.71899329       0.04343187      -0.01053191      -0.01175036
Ar       6.02249229       1.72929020       8.44201519       0.02334075      -0.03366565       0.00303908
Ar      12.87238385      12.86290312      11.55570326      -0.03533770      -0.01531426      -0.01474858
Ar      15.43312868      10.59627350      11.79714476      -0.05426794      -0.00643541       0.06646499
Ar       7.49264173      11.42476304      15.22085942      -0.06810238       0.00658410       0.05212022
Ar       8.86658822       8.10583794      15.71739415       0.00012105       0.00271292      -0.06379621
Ar      12.67013851       4.49838996      10.86722478       0.08772017      -0.00030554      -0.05534412
Ar      13.42110707       7.74498326       1.42283950      -0.09573756       0.06262484       0.13003858
Ar       0.03124517      12.85290764      13.50304138      -0.05842377       0.03918515       0.08714138
Ar       9.15427480      16.90537154      11.56684634      -0.05000382       0.00135132       0.03122302
Ar       0.98197219       7.72757401      14.80588368       0.03326851      -0.02289635      -0.03417093
Ar      16.72563537       2.29620449       6.08785048       0.05101680      -0.04257296      -0.06451250
Ar       4.63729294       9.15853494      14.82106390      -0.07177157       0.01062090       0.05769518
Ar       6.77387651      17.33744509       1.66186406      -0.10186823      -0.04485403       0.07694466
Ar      10.66264424      10.73374306      17.16938198      -0.01330590       0.00814244       0.01611721
Ar      17.03485527       1.44690448      11.71744924       0.07878619       0.05519123       0.01694207
Ar      14.72886365       7.46280711      13.11244926      -0.03550283      -0.01865802       0.01375472
Ar       7.87646575      17.05218435      14.93530911       0.12100848      -0.07240034       0.01165563
Ar       1.55372517      12.15787775       8.07631912       0.02065797      -0.06962887       0.00216196
Ar       7.12050307      14.07646138      12.79986307       0.01561787       0.01745877      -0.04551461
Ar      12.05997609      16.40344661      14.63918086       0.06914063      -0.04944077       0.05841574
Ar       7.47642562      15.97552404       5.44599826       0.00341143      -0.01538270      -0.05391596
Ar      15.30997543      11.06396281       8.00574766       0.05316010      -0.00903581      -0.02205326
Ar      13.55983214      16.62388908       5.94961467      -0.00514116       0.07218538      -0.00041994
