108
Lattice="17.35 0.0 0.0 0.0 17.35 0.0 0.0 0.0 17.35" Properties=species:S:1:pos:R:3:momenta:R:3 pbc="T T T"
Ar       8.37129436       2.24552765       7.04715778       0.06461429      -0.00714654      -0.03624489
Ar      10.20043447       7.68174906      12.67801770       0.07340494       0.00315901      -0.06463788
Ar      11.62668782       3.00910419       5.59960480       0.13926235      -0.05392766       0.00920833
Ar      17.30145300       7.26601611       4.45194251       0.03773297       0.03745971       0.01285142
Ar       6.46046271       3.21217888      10.58179715      -0.04664460      -0.05776838      -0.07213429
Ar       3.14096529      13.25855229       4.85905525      -0.04259714       0.03595251      -0.00440374
Ar      14.76787300       4.54021968       3.98820305       0.02839021       0.01656451      -0.00634232
Ar      13.36779698       5.79865803       7.64501830      -0.01273055       0.02692915       0.01348291
Ar      10.32397350      16.51371475       6.28223528      -0.05692840      -0.06610863       0.10935280
Ar      15.86865011       5.95677178       0.79175373      -0.08593423      -0.00455581      -0.08999347
Ar      14.43063817       9.20407421       7.37697443      -0.06640374       0.07970439      -0.01157416
Ar       2.23809149       2.55794258       7.68090162      -0.03662953      -0.05194351       0.04347530
Ar      11.54558140       4.93389675       2.07713828       0.00888581      -0.00831309       0.05329917
Ar      10.18260102       7.63807033       8.92832676       0.02232701       0.07985548       0.06196566
Ar       7.13856746       1.05508833       3.18769660       0.08717358       0.04637849      -0.02499504
Ar       1.90681562       4.50394625       4.69892728       0.00502583      -0.04488449      -0.04258909
Ar      11.01017123      11.65646554       4.52048345       0.12134866      -0.01643583      -0.08304383
Ar      10.67051870       1.14573697       2.18248740      -0.01177024       0.02506103      -0.10064028
Ar       7.42963094       5.63007086       7.61072983      -0.03295914      -0.01585801      -0.04939171
Ar       2.39345846       6.47009466       1.35611341       0.01499857      -0.02310819      -0.02843175
Ar      13.04138547       7.84735802       4.17001665       0.07011732      -0.03245098      -0.07773765
Ar      14.43882972      16.53917061      11.71343354       0.04071437      -0.04972750      -0.05968205
Ar       5.24881685       3.37682002       5.27547271      -0.05341810       0.07657625      -0.06681977
Ar       5.45964248       7.73932565       3.73143556       0.06856863       0.06425647       0.07763523
Ar       0.27463129       2.43106934       2.10651498      -0.07219309       0.01239519       0.02505839
Ar       7.40027289      16.45441375      16.23375583      -0.04696906       0.01164966       0.02302884
Ar       4.83030115       1.89029723      16.06363620      -0.04831799      -0.07153964       0.14435968
Ar      10.67009634       0.01863661      14.26891572      -0.02216796      -0.06251328      -0.08648155
Ar       1.11870534       1.38406289      15.82212956       0.02727162       0.00275311       0.02364451
Ar      13.91400215      17.16651678       5.18287159      -0.04073240       0.00066504       0.00986398
Ar       6.56904428       6.23908485       0.46842519      -0.04146751       0.05878952      -0.04850025
Ar      10.64928095       3.97972740       9.32634092      -0.04795640       0.12793647      -0.03261617
Ar       6.64753582       8.69479942      10.48189152       0.00917977       0.02781835      -0.02220069
Ar       6.68879834       4.80232345      14.34011876       0.02849633       0.04677933       0.08848595
Ar       3.36461333      17.31168111      11.11617392      -0.05065859       0.02948063       0.04026999
Ar       1.15323956       7.33237477      12.12672646      -0.01079029      -0.05629600       0.05025812
Ar      16.46090618       4.51608377      14.09838194      -0.06488582      -0.01570526      -0.00267239
Ar       2.39738992      16.92199955       2.94157205       0.02008764      -0.10123169       0.04052810
Ar       4.32731677       6.06716018      11.69000911       0.01185310       0.05512797       0.02356108
Ar      10.30383022       0.55488552       9.90636972       0.07143468      -0.03378849       0.01957679
Ar       3.87065189       6.74816067       7.58161414      -0.01304915      -0.02424099      -0.01586943
Ar      14.63180552       6.06354888      11.47986359      -0.15876582      -0.01368843      -0.00877019
Ar      13.61679086       2.89735425      12.53799431      -0.01132829       0.08105482       0.00740682
Ar       7.76157138       4.66763837       3.56122411      -0.06482265       0.03700988      -0.09610213
Ar       4.02029415       3.36145438       1.65185622       0.04683726      -0.04982170       0.03176624
Ar      16.26850111      10.14114245      10.46429741       0.00725030      -0.02281421      -0.00910542
Ar       0.91413785      10.84846051      14.73594247       0.01386341       0.02901755      -0.03399583
Ar       2.38565878       3.41077681      11.72830080       0.03446593       0.02433671       0.01469104
Ar      11.27114816      10.25844482      14.59043524      -0.02504451       0.04020980       0.01526520
Ar      17.32694433       7.07414498       8.75052623      -0.00876384      -0.10025534      -0.01539073
Ar       9.73697129       6.28880347      16.46877455      -0.05780891       0.04141990       0.07099898
Ar      10.18769451       4.28066915      13.47290404      -0.07489683      -0.01332588       0.02883087
Ar      17.29577021      10.73128322       1.25037536      -0.01427187      -0.04482481       0.04465110
Ar       7.63283982      15.18790122       9.05141236       0.06318397      -0.03404323       0.10416392
Ar       1.04247737      10.14190790       6.99452357       0.11611952       0.11812118       0.03520809
Ar       0.04011278       0.74945569       9.76959427       0.00379194      -0.00874128      -0.03425852
Ar       3.69070192       9.80933637      -0.00575661       0.03315123      -0.05474410      -0.09952993
Ar       9.83677001      11.87819218       0.17126363      -0.01385117      -0.00496111       0.04470882
Ar      14.28421113      12.67760549       0.07105852      -0.00564710      -0.03096118      -0.05314380
Ar       8.29942352       9.09468974       5.34260957      -0.04315020      -0.05221635       0.06126042
Ar      15.03790223      17.00870869       1.31441522       0.02366902      -0.03700829      -0.02686162
Ar       8.91702647      14.11646163       2.75039622      -0.05227095       0.03321281      -0.04888000
Ar       9.06777655       2.86212502      17.08235534      -0.02958266      -0.02568766       0.03802850
Ar      12.79964357       8.22930052       0.53212604       0.07035938      -0.02812885       0.05044767
Ar       4.83510573      10.13943517       7.19754736       0.03318828      -0.03988955      -0.05129703
Ar      15.65921528      14.87560642       7.87847451       0.04572709       0.03654420      -0.04605954
Ar       2.88535255      13.02090656       1.10819283       0.02032476       0.00567780       0.05780926
Ar      14.72617497      10.94760091       4.00182446       0.10531045       0.01506428      -0.01255082
Ar      17.08775681       1.16090917       5.70603097       0.00502686       0.06503140       0.02536897
Ar       9.08440478      13.99787297      14.25739669      -0.03832170      -0.06948647      -0.01163454
Ar       5.84551690      15.91939910       5.73869060      -0.06567731       0.00923367       0.02252213
Ar      11.58238197      13.38534219       7.58769570       0.09090810      -0.10524620       0.00833077
Ar       0.17757102      14.78424889      16.63192481       0.04389147       0.00088962      -0.04456979
Ar      16.41574230       4.06131568       7.66419396      -0.04675175       0.13330453       0.03287329
Ar       6.13215166      11.12050943       2.57542621      -0.03958622       0.07854954       0.09951265
Ar       8.83924643      11.12692426       9.21277306      -0.05517865      -0.01160723       0.06408556
Ar      12.54570115      14.06724982      14.53394543       0.02662092      -0.01845228       0.02090848
Ar      14.01518042       2.92722475       0.19812136      -0.07837486       0.00456802       0.00078535
Ar       9.79150580       8.60227574       2.36300672      -0.04353431      -0.03119420      -0.05575158
Ar      12.76065090      14.41658223       3.53560057      -0.02689804       0.05846418       0.03538000
Ar      16.94693158      14.10948518       3.67447298      -0.01484076       0.02273293      -0.03267255
Ar       2.67972134      15.38889002       7.76052981       0.05262646      -0.04236203       0.03120899
Ar       7.05945700      16.72269733      12.81211841       0.02046192       0.05631334       0.00074396
Ar       0.47168048       7.77487103      15.59087961      -0.01741378      -0.04038481      -0.10454901
Ar       5.53803938      12.18062870      10.59123126       0.04918859      -0.01235462      -0.12780800
Ar       2.59317031       9.71234877       3.57994758       0.01084686      -0.05706145       0.02941033
Ar      12.61787607       9.85436915      11.39914405       0.04142286      -0.03428728      -0.03443853
Ar      16.18562179      13.16800438      13.63505150       0.01818078       0.03669456      -0.00227197
Ar      14.04616868      13.10844380      11.04630706      -0.08564381      -0.01701598       0.04190131
Ar       5.73847515      12.85813373      15.60112369      -0.00954458      -0.07781954      -0.00722121
Ar       2.66674705       5.18127465      15.22951905      -0.01903521       0.06216765      -0.02790352
Ar       7.51250118       9.33555408      16.44126409       0.00241786      -0.04577512      -0.01469921
Ar      14.82971427       9.30405886      14.38042583       0.08316005       0.00371680      -0.04535039
Ar       3.31302363      14.36240967      13.64618792       0.01074819       0.03647299       0.07835267
Ar       0.01155023      13.66328229      10.51588863      -0.01751988       0.00738712       0.08760866
Ar      13.92111214       1.50476795       8.43898228       0.05332236       0.03309932       0.01968811
Ar       3.77710130       8.94404072      13.84686532       0.02028388       0.03397252      -0.05319988
Ar       5.70656205      14.76184726       2.16458693       0.00130349      -0.08172051       0.08078442
Ar      14.97351234      17.25208080      15.05804523      -0.04063688       0.02408669       0.09563269
Ar       3.55951949      16.07588494      17.11704382       0.07883171       0.04742212       0.05743058
Ar       0.30826391      16.35274829      13.08898552       0.07208329      -0.00295693       0.12113635
Ar      10.85007601      15.37971796       0.09344399       0.02941439       0.03351170      -0.02599492
Ar       2.75914871      10.16503438      10.23130388      -0.00539614       0.00011521      -0.07350518
Ar       7.81496742      11.16222542      12.99036941      -0.02543475      -0.02588485      -0.03943107
Ar       5.36608707       1.18133083       8.18518707       0.05638047      -0.04462506      -0.00057818
Ar       7.72469053      12.75808668       5.66876809      -0.02684125       0.04030144       0.00322561
Ar      10.72171956      14.32257535      11.06050592      -0.10239772      -0.06767557      -0.09974007
Ar      13.35822201       6.25728817      15.01063290      -0.11081441       0.02956954      -0.06776651
