108
Lattice="17.35 0.0 0.0 0.0 17.35 0.0 0.0 0.0 17.35" Properties=species:S:1:pos:R:3:momenta:R:3 pbc="T T T"
Ar       9.72573095      13.47308480       2.26867678      -0.07601120       0.04074180       0.02783428
Ar       7.95664347       9.67460568       9.78766107      -0.05200107      -0.03586471      -0.00232315
Ar      11.59977840       2.57425590       4.09611876      -0.00239454       0.03084145      -0.00926548
Ar       0.01335208       6.11812772       3.64226828       0.02333109      -0.02957440      -0.06572830
Ar       5.29396415       6.46114189       9.36063791       0.02840164       0.05266719      -0.00271670
Ar       6.15204835      12.14287682       3.22302025       0.07983948       0.08586387      -0.03279252
Ar      13.22643667       5.12930795       6.48054817      -0.01109783      -0.05813363      -0.02474980
Ar       9.22143635      10.48823618       4.99045271      -0.02739399       0.02828669      -0.01665271
Ar      10.15449173      15.38772134      12.16965136      -0.10090304      -0.01544716      -0.01677104
Ar      13.09350295       2.89019785       0.76192292       0.00733685       0.03704909      -0.02961044
Ar       2.90074421       7.68911532      11.79474261      -0.09788869      -0.06695205      -0.02411122
Ar       3.63403085       2.38850975       7.65091795       0.01007495      -0.01991157       0.06994811
Ar       9.75605879       4.01123700       0.51125925       0.00685428      -0.00609166      -0.02500978
Ar      11.02494745      13.74883082      15.94787671       0.06640150       0.04085964       0.05053523
Ar       3.29888692      13.64427624       0.73123591      -0.01024760       0.05085989      -0.01247175
Ar       3.40815704       6.36311237       6.17913379      -0.06973176       0.03783796      -0.01461514
Ar      12.81595548       9.09591861       6.22205847      -0.05927581       0.12898333      -0.03495574
Ar      13.18478337      13.72587664       1.21627205       0.08043737       0.06205765       0.09093349
Ar       9.58880936       0.79489080       6.80783862      -0.02497420      -0.10705830      -0.00537770
Ar       4.00545600       6.31572884      15.17604710       0.05343242      -0.02199474      -0.04240238
Ar      14.45588231       6.82904217       1.46089145       0.05461847       0.03964093      -0.01093841
Ar       1.18085188       1.14641095       9.64114885       0.02577219      -0.06348894      -0.05718930
Ar       7.68293480       5.58475213       3.63212305       0.08889061       0.01628868       0.03045040
Ar       6.52915030       5.87400413       0.59368588      -0.03725303      -0.02834840      -0.03821812
Ar      17.34125523       3.86128424       0.77539026      -0.02969742       0.00099713      -0.03743635
Ar       4.70035008      17.32984022       1.43107094      -0.05928108      -0.07896896      -0.01773490
Ar       5.26844438       4.15161623      12.14026147      -0.02195196       0.08579257       0.01163670
Ar      13.03547667       0.19059661      11.16039342      -0.13019125      -0.04909441      -0.02724606
Ar       3.72040389      11.31669744      11.27320331      -0.04043507       0.03251709      -0.06642077
Ar      16.25872786      14.56225710       4.97185403       0.07251680      -0.05224965      -0.01097412
Ar       2.03861956       2.63972909       4.25603524      -0.12893627      -0.01117531       0.08960549
Ar       6.73274960       3.96852220       7.23942115       0.03716496      -0.04350933      -0.04760973
Ar      16.11658024       7.87505636       7.24506341      -0.02294001      -0.01893981      -0.10765209
Ar       6.81719953      13.24384620       9.69527792       0.01766526      -0.03287962      -0.01096178
Ar       1.77902983      16.47965298      15.97001335       0.11523635      -0.02382254      -0.00787042
Ar      14.49976912       5.00967738      15.44123359      -0.00900993      -0.00384565       0.01882596
Ar       0.68188422       4.52480299      14.44766161       0.02441268       0.10621433      -0.00796898
Ar       3.13624633      16.42626589       4.47423579      -0.00836909      -0.01439936       0.02696930
Ar       2.39708158       0.65436207      12.95622366       0.08519306      -0.04246166      -0.03649138
Ar      15.94395546      15.95163356       9.23184248       0.04227315       0.01071868       0.05413074
Ar       4.49801222       9.66727277       7.57902155      -0.01781371       0.06281092      -0.03813784
Ar      12.30511611       6.11778768      12.68477874       0.00591983       0.04874611       0.01060717
Ar      16.26946377       6.50458978      12.19260593       0.02333977       0.05812576      -0.04255949
Ar       3.55712352       5.36048206       2.16637356      -0.02049600      -0.11337215       0.05013183
Ar       3.36749403       3.06609407      16.92319477       0.03327059       0.07098362       0.01284991
Ar       1.02495137       9.96522544      13.70370805       0.02333133       0.10681484      -0.10650585
Ar       4.05455221      13.09858689      14.41290751       0.04010909       0.06577356      -0.06772767
Ar       0.26696400       0.25349671       6.08906335       0.02016338      -0.04227816       0.11936244
Ar      12.44681439      16.99860576      15.86649796      -0.08462634      -0.07844912       0.03416299
Ar       1.74504892       4.22884959      11.01963845       0.05589795      -0.00611881       0.08054621
Ar       9.02410172       5.98920900      14.98798998      -0.02213671       0.03575627      -0.01332259
Ar       8.41771617       7.25294165       6.44025031      -0.05306318      -0.04118506      -0.04982337
Ar      13.65487342      17.00010333       3.48843217       0.05880880       0.00162516      -0.04565188
Ar       5.95599743       1.17701521      10.06962015       0.00368704       0.01748781      -0.04771168
Ar       1.30000778      13.88024610       7.69998835      -0.01329081       0.00052128       0.03726957
Ar      11.76043665      15.90157134       8.15789195       0.00956849       0.00988549       0.06411649
Ar       2.68159995       8.71505322       1.64871777       0.10035308      -0.01930418       0.00618172
Ar      11.81392213      10.09454077       1.64529942      -0.08465361      -0.02650469       0.02247998
Ar      11.43372876       6.95767438      17.17912512       0.03512766      -0.11601450      -0.03303456
Ar      10.65821241      12.37316900       9.70658057       0.01894756      -0.05648415      -0.03898298
Ar       0.07448317       0.18558903       2.88025320      -0.05904882      -0.03280981      -0.06060164
Ar      13.85484451      13.65398011      11.27982661      -0.09725974      -0.07922489      -0.00330820
Ar       9.89351804       0.01042830       1.07508746       0.03421886      -0.05404716       0.01106716
Ar      10.95897133       6.79080943       3.53457564       0.02470332      -0.00384341      -0.04686647
Ar      15.87680454      10.65234117       3.98299975      -0.06529199       0.09319481       0.06591428
Ar       2.23076343      12.99874445       4.18441407       0.02936462      -0.02039192       0.06302949
Ar       4.44772204      10.28445617      16.23291554      -0.07869807       0.03769078       0.02735083
Ar      11.25702060       7.62035519       8.91929898       0.08937767       0.05847260      -0.01859072
Ar      15.26774011       2.87971880       4.40416158      -0.02302272      -0.06368561      -0.03480047
Ar       5.93608347      15.98372552      12.17644316       0.02307100       0.03337679       0.09501626
Ar       5.67700384       2.26049079       3.56264747      -0.06842574       0.00218008      -0.05315057
Ar      14.23927084       6.04885718       9.57201175      -0.03860153      -0.06145967      -0.05707077
Ar      16.10716294      10.00247694       0.19688992      -0.00535446      -0.02245539       0.03091993
Ar      17.01323027       4.25174484       7.96374937       0.02190545       0.02433393       0.00851175
Ar       5.59923299       8.41934114       3.71673989       0.07666222      -0.10172515      -0.04871382
Ar      14.38539174       9.95226811      10.06052776      -0.04552918      -0.03217938      -0.01899559
Ar      11.32079065       3.07315427      14.59586417      -0.03710229      -0.04889901      -0.02974557
Ar      15.36165845      16.47204547       0.26816390      -0.05134219       0.04455651       0.06089731
Ar       1.40939198       9.60083221       5.44388299      -0.03113781      -0.02991717       0.05182722
Ar      16.94048680      13.33583957       1.33254277       0.04200246      -0.03097166       0.01862284
Ar      12.46764408      13.10370130       5.10446012       0.08643181       0.08448157       0.01108975
Ar       3.99106581      15.87247149       8.19493726       0.02139218       0.04016936       0.06549402
Ar       6.75115040       2.87555358      15.49530214      -0.02469588      -0.02299137       0.03211910
Ar       0.49714184       7.24117418      16.66504119       0.11441334      -0.03015761       0.00333921
Ar       2.08494944      14.55250539      11.28539227      -0.00986922       0.01258502       0.09833510
Ar       5.09517024      12.92620621       6.43422158      -0.00210847       0.08470472       0.03855687
Ar      14.25199643      12.06344530      14.72061925      -0.02823528       0.02668221       0.05244111
Ar      16.32522385      16.69240395      12.82082151       0.05135128       0.13815491       0.06268500
Ar      10.51068209       9.47238008      12.30519585      -0.01840281       0.02519316       0.01782620
Ar       9.58619697      10.18979713      15.89634809       0.02399565       0.06740500      -0.03964012
Ar       8.75042338       5.96636708      11.51498102      -0.03124396      -0.04559292      -0.09122519
Ar       8.05358626       9.15089977       1.48657229      -0.03639235      -0.03573817       0.07014774
Ar       0.47778472      13.54535473      14.52155266      -0.00145613      -0.02672191       0.01204619
Ar       7.11473970      16.09511003      15.80429648      -0.05174616       0.09634403      -0.04860262
Ar      16.87096474      12.16799172      11.28068011       0.00212422       0.02595928       0.05647799
Ar      14.23079603       1.65195719       7.59348314      -0.04185842       0.03467731       0.02172231
Ar       6.23816990       8.49167278      12.85714559      -0.01464450       0.04312507       0.01843016
Ar       8.20664140      16.28258929       4.04169930      -0.13884621      -0.03731330       0.04454245
Ar      13.86803795       8.36084709      14.71966903       0.01765897      -0.01594035      -0.03246371
Ar      16.25151913       1.83003751      15.64284390       0.06702242      -0.05575316      -0.03895567
Ar      15.44595383       2.53786036      12.03377238       0.05022455      -0.04910361      -0.04453109
Ar       6.98003069      12.64817409      17.18516227       0.09065186       0.12198076      -0.04984129
Ar       1.15289726      10.08448316       9.21449358      -0.02018490      -0.03741538       0.01155161
Ar       7.69730542      13.03912752      13.72992500       0.04575377      -0.04420517       0.04625085
Ar       8.83074610       1.40957503      12.01496200      -0.01195509      -0.06858259       0.01895622
Ar       8.99083454      14.26637335       6.83204166       0.10660376      -0.07311423       0.00153828
Ar      15.25316327      11.83603880       7.46360278      -0.04867437      -0.01394132       0.06711897
Ar      10.27211795       3.59780587       9.39724460       0.02988640       0.00008731      -0.04757653
