108
Lattice="17.35 0.0 0.0 0.0 17.35 0.0 0.0 0.0 17.35" Properties=species:S:1:pos:R:3:momenta:R:3 pbc="T T T"
Ar      10.25102270      17.16181544       8.50685703       0.02079601       0.04240021       0.10749580
Ar       7.01799427      10.17620112      11.93710549      -0.02990386       0.02847843       0.09792287
Ar      14.19181483       2.18229172       3.50399148       0.00354391      -0.01869412       0.05879133
Ar      15.62398783       5.67674928      16.35415486       0.06275357      -0.00736047      -0.06054102
Ar       6.29724254       5.00310023       7.90347516       0.00437272      -0.12214452      -0.04293163
Ar       5.59430064      13.28736851       3.79817405      -0.06209696      -0.03237718       0.05055457
Ar      12.27919216       2.49494674       6.98410792      -0.00619972      -0.02128791      -0.10254557
Ar       6.88714475       8.16240933       5.39715776       0.01182083      -0.04744357       0.01259974
Ar       7.26651467      15.12061698       9.14592897       0.03176114       0.02670371      -0.07322879
Ar      15.73223864       1.06088493       0.39240583      -0.01465573       0.03900635      -0.06665608
Ar      16.57342177       8.44426195       8.74233920      -0.13523445      -0.05485429       0.01851473
Ar      17.29883264       4.20023800       8.83499992       0.07708243       0.00647678      -0.02719336
Ar      12.52430028       4.24905988       1.11470299      -0.07972599       0.02721225       0.09815008
Ar      11.10367227       0.60254187       0.89580859       0.02805587       0.05999453      -0.03404491
Ar       3.20918113       9.60916809       0.50616892       0.03692235      -0.01050814      -0.02004205
Ar       3.36982441       7.50736317       4.23375003       0.04258453       0.05115443      -0.01153237
Ar       9.76579709      13.21368630      10.59460087       0.05788611      -0.01054667       0.08441418
Ar      12.81185476      12.46737672       1.96762008      -0.03430932      -0.04843234      -0.03991638
Ar       3.56145669      15.31044770       8.05425816       0.06419656      -0.07291373      -0.07160397
Ar       7.02664365       5.38515056      16.47873307      -0.05186900       0.01523987      -0.09878643
Ar      17.20632124       5.66391554       5.65909909      -0.04303577      -0.02243220      -0.10285384
Ar       1.91185796      14.99331213      11.68414410       0.01270015      -0.03267280       0.02601354
Ar      11.88154755       6.69367450       5.93532100       0.04559657       0.12741185       0.03866485
Ar       6.53972187       2.03869367       4.89762661       0.02381083      -0.11209221       0.07641176
Ar       1.58258507       2.16953615      15.30956279       0.07462746       0.03568496      -0.00707867
Ar      15.61324388      10.73471682      16.47048986      -0.03259824       0.00758060      -0.06277277
Ar       1.81716568       6.82171065      11.18601188      -0.03377297       0.02522763       0.01092575
Ar      13.90917726       0.51276028      10.71113689      -0.02950544       0.05316617      -0.00199926
Ar       5.27375224       9.23759261       9.29004571       0.06316763       0.01396733       0.04808706
Ar      17.13211513      15.85528533       3.39944210       0.00305462      -0.10403020       0.03421546
Ar       2.21881806       0.42758028       1.31138871      -0.04288402       0.04294306      -0.03512745
Ar       9.42076897       4.39455254       4.89326982       0.02739399       0.02688102      -0.00222473
Ar      12.90549266       8.55969194       9.70282978       0.00747276      -0.05461031      -0.02796556
Ar       4.72959597      13.01819830      10.84817035      -0.03472769      -0.01620997      -0.09888569
Ar       2.90771374      16.26199284      14.57988070      -0.02321922      -0.00825590       0.04619061
Ar      16.88872929       3.90949972      12.90970944      -0.06177226      -0.09015868      -0.13921638
Ar       3.86720197       3.00470679      11.61068258       0.03670796      -0.02896123      -0.04764026
Ar       2.86437226      14.22356757       1.47561269       0.02700572      -0.00731539       0.04546567
Ar       3.89929895       5.40998802      14.64320868       0.03964086       0.05154717       0.02180075
Ar      15.93311258      14.25216572      11.05018490      -0.01172277       0.11945807       0.07364994
Ar       4.52443023      10.42169738       5.81955586       0.05374045       0.03738611      -0.03771333
Ar      10.40890663       3.14667342      15.08037346      -0.03480562       0.01988579       0.00911544
Ar       6.19600719       5.69760321      11.38590583       0.04084959      -0.13351081      -0.03147363
Ar       3.01413169       4.61597946       0.42512971      -0.08117254      -0.09174073      -0.09574652
Ar       5.48270774       1.10027778      16.46048128      -0.03576351      -0.00947191       0.00231105
Ar       2.65351664      10.48457708      11.81680605       0.05047204      -0.05302323      -0.07071252
Ar       5.47606526      14.93135369      16.86026383      -0.04914141      -0.00888850       0.00661845
Ar       3.33465207      17.02336457       4.31633720      -0.10492606      -0.01639564      -0.02496270
Ar      13.65283318       3.02834350      13.70131631       0.02130137       0.02965478       0.07793934
Ar      17.08396348      15.85596866       8.00558996      -0.01532128      -0.08258555      -0.01301816
Ar      10.86843159       6.43788172      12.70666820       0.03735993       0.07722816      -0.02201163
Ar       8.78785833       7.31955076       9.75102379       0.05445152      -0.00701876       0.07780136
Ar      13.57711841      16.18812376       2.57889780       0.07866025       0.04766057       0.01915449
Ar       7.40479941       3.00585739      13.38067960      -0.11968463       0.06082090      -0.02637407
Ar      15.09822248      13.22605796       4.88661437       0.02693772      -0.04006465      -0.03875983
Ar       9.60625069       3.65794715       9.83434744      -0.09590024      -0.03922547      -0.00177028
Ar       5.80669047       5.45402665       2.80059091      -0.09151859      -0.03034018       0.03214478
Ar       9.26984377      13.27902252       1.68768637      -0.04101138      -0.09474921       0.08120246
Ar      10.18500412       7.22785906       2.27131192       0.00778826       0.09071058       0.01871287
Ar       8.23226084      11.10290986       7.40759691       0.00605451       0.19806653       0.04184634
Ar      17.32776607      14.91963074      17.01589341      -0.02099252      -0.08767961      -0.00467242
Ar       9.85960459      12.99320691      14.89099084      -0.00552853      -0.01116023      -0.02320546
Ar      10.53234578       0.78693505       4.38031405       0.05326116      -0.02084107      -0.06751631
Ar      12.89101076      14.78441746       8.78692700       0.04718822      -0.04474042       0.07142058
Ar      14.16831516       9.67219871       5.81801168      -0.05572412      -0.01968348      -0.06472909
Ar      17.05580172      12.08476960       2.15840228      -0.00903750      -0.00674190      -0.08055237
Ar       6.68328751       9.41304631       1.82940002      -0.04812306      -0.15138000       0.02522875
Ar      10.48711173      10.57846190       4.39614588       0.02513558       0.04653045       0.08744015
Ar       0.03626318       3.57789568       2.37259891      -0.00670918       0.05291021       0.03387586
Ar       5.63544407      17.28662724      11.91399417       0.02251826       0.02956003       0.06767983
Ar       2.82277466       1.88394551       8.32720257       0.09907959      -0.01011766      -0.04866836
Ar      11.92657387      11.73365182       7.89940831       0.03470952       0.04238030      -0.03658760
Ar      12.57157804      10.34424719      14.77628292      -0.10023369      -0.06503607      -0.04532646
Ar       3.23796952       3.65165276       5.18471240       0.03483166       0.03183849       0.00712055
Ar       2.70983480       6.76853113       7.65626052      -0.01548422       0.03210134       0.04953037
Ar      10.52285955       9.82975985      11.65511947       0.00239773      -0.01583732      -0.02837753
Ar      11.72178888       6.92018898      16.16299655      -0.03783734      -0.01552974       0.01849982
Ar      16.58362677      16.66325585      13.94291097       0.00074747      -0.01384636      -0.04422315
Ar       0.68925969       9.98858890       5.86794946      -0.01914421      -0.01868282       0.01828921
Ar      13.99259818      13.69867638      15.78285643       0.00796796       0.08380450       0.02788842
Ar      11.59247977      14.26882505       5.04282408      -0.00640422       0.08629665       0.05922201
Ar       1.95001054      13.43629906       5.17114496      -0.00175544       0.03919147       0.13392788
Ar       9.10305861       3.50585375       1.69737571      -0.02230177      -0.00767018      -0.11678619
Ar       0.22950581       8.04248415       2.19775921       0.01616620      -0.03983223       0.05481005
Ar       3.65648391      12.71971571      14.99386340       0.03852582      -0.00156081       0.04630778
Ar       6.89487329       1.65275395       8.53923036       0.03613159       0.03120586       0.00827370
Ar      12.89766532      13.10703342      12.56330841       0.00122519       0.03255926       0.04372654
Ar      15.63863123      10.03297652      12.19256028      -0.05601705      -0.05030110       0.04039667
Ar       6.80124067      11.58240556      16.26411419      -0.02730411       0.02175188       0.04878329
Ar       8.47093921       8.35325369      14.88722189      -0.06437767       0.05607073      -0.12453913
Ar      13.37092899       5.04343121       9.68583553       0.01665177       0.11847030      -0.11826894
Ar      14.38211781       8.98971855       2.04490472       0.00666092      -0.03935620       0.09772286
Ar       0.19420717      12.52298912      14.25126386       0.01207885      -0.06093023      -0.01576557
Ar       9.48321882      16.99438660      11.99049076       0.05870484      -0.03138975       0.05809173
Ar       0.26333490       8.24109588      14.62612444      -0.01725846       0.04319339       0.00630963
Ar       0.46198116       1.27090577       5.95736987      -0.03618245      -0.02074876       0.04577364
Ar       4.89558004       9.08341032      14.42537461       0.00648540       0.00885890      -0.02049620
Ar       7.77462877      17.19246336       1.91190367       0.11674943      -0.01264826       0.01313133
Ar      10.16028255      10.26379323       0.23979244       0.00186159      -0.11207919       0.02679415
Ar       0.04570538       0.75384913      10.52309087       0.05291621      -0.05822108      -0.00995856
Ar      14.17748508       6.60432813      13.45902479       0.00612607       0.09769386      -0.03257585
Ar       9.05884554      16.67460708      15.66405774      -0.01601016       0.08865510       0.00844496
Ar       1.49188805      12.55450430       8.77904265       0.03303593       0.01497287       0.02377286
Ar       6.86087109      14.12519426      13.41148821       0.00855177       0.05802698       0.01334540
Ar      12.59290446      16.63871212      14.17137703       0.03061482       0.01653190      -0.08220704
Ar       6.83282620      15.85698499       5.72095427       0.03370097       0.01092940      -0.04473043
Ar      15.46273768      11.95671409       8.52025698      -0.08891809       0.07728242       0.03841181
Ar      14.30347866      17.06644742       5.86505254       0.06722777      -0.03643321       0.05558139
