108
Lattice="17.35 0.0 0.0 0.0 17.35 0.0 0.0 0.0 17.35" Properties=species:S:1:pos:R:3:momenta:R:3 pbc="T T T"
Ar      10.15069895       0.79726989       5.30787414       0.08321727       0.08171617       0.00127654
Ar      10.34901561       8.35989058      14.55443309      -0.01399913      -0.01334950      -0.00333456
Ar      12.93696792       2.61659483       4.14130544      -0.00928668       0.08344552      -0.13176627
Ar       0.06527198       7.27861183       5.30700293      -0.07234023      -0.10688282       0.02025619
Ar       6.73089386       3.22117194      11.27599610      -0.00279161       0.04756601      -0.14850813
Ar       2.55368649      14.38192028       4.77684644      -0.06965403      -0.04070957      -0.04055682
Ar      13.23384244       6.29708954       4.09052756      -0.04388033      -0.03223603      -0.02573543
Ar      10.56196997       7.21957123       6.73471206       0.01567661      -0.01902200       0.00924547
Ar       9.10250083      14.80900905       6.45583107      -0.11600685      -0.00343989       0.02389894
Ar      14.92158997       7.61115084       0.49136471      -0.14156164      -0.00782534      -0.11505964
Ar      16.29778344       9.39684463       9.80397586      -0.05135539      -0.00190822      -0.00911660
Ar       4.65650137       3.06307781       8.17958553      -0.04887021      -0.04622369       0.00624037
Ar      13.17066800       4.29982476       1.27892608      -0.00521508      -0.01265476      -0.00624399
Ar      10.15636759       8.05634378      10.30905326      -0.00646477      -0.01101793       0.06362071
Ar       3.11845178      16.63028173       1.18507541       0.11436167      -0.01564662      -0.01694355
Ar       1.75469508       4.15416453       5.98289239      -0.03306303       0.06500022      -0.05523599
Ar      11.90967831       9.57612331       3.42146668      -0.03306381       0.01992208      -0.05429581
Ar       9.13793433      15.81028963       3.01874340       0.02448073      -0.02733117      -0.04005764
Ar       9.93398684       4.66357571       3.62281232       0.02307187      -0.03895233      -0.00906286
Ar       1.04055924       6.36452472       1.08152110       0.04922924      -0.03048983       0.03533968
Ar      15.23148663      10.07374798       3.58902661      -0.06326401      -0.06833618      -0.04338780
Ar      15.49123498       0.05228478      10.34909303       0.02214144      -0.03777557      -0.03765168
Ar       7.03410175       2.98433839       4.67350837      -0.07681385      -0.02545708      -0.02574223
Ar       3.73845787       6.31635398       4.06159448       0.01642328       0.05439986       0.04731310
Ar      16.42214041       3.23477903       1.46106873      -0.03218061       0.06289519      -0.09597482
Ar       6.48532257      15.98287861      16.29161134       0.04290482       0.04173890       0.01259340
Ar       6.18026231       2.77530307      15.86398100      -0.01305209       0.03607848       0.08744107
Ar      12.33437165       2.08004918      15.08277953       0.00960957      -0.06131453      -0.00521036
Ar       2.34036849       1.86036153      15.91634942      -0.08751903       0.05700815       0.07063323
Ar      13.47596848      16.25024275       3.91801989       0.00685268      -0.09153620      -0.05786827
Ar       6.63364046       5.37884904       1.63206710      -0.07134842      -0.04593767      -0.03364172
Ar       8.82095680       2.68070226       8.06653561      -0.04035512      -0.00594502      -0.09876708
Ar       4.96283918       9.77956344      10.47439399       0.02988784      -0.05321403      -0.03055267
Ar       7.32037434       6.48118459      13.10555647      -0.06541212       0.05850339       0.04256744
Ar       5.29335808       0.48124921      13.01054195       0.02849370       0.10205486       0.01977049
Ar      17.02846061       6.27128303      11.25923279      -0.01106750       0.03832878      -0.08045896
Ar      17.13761998       4.55888857      15.17213234      -0.03208636      -0.00154387       0.01708789
Ar       2.22141101       0.70899912       4.43381483      -0.06057044       0.01647984       0.07999789
Ar       3.32961042       4.34171620      12.33370049      -0.01605336       0.09111033      -0.01544138
Ar      11.20797291       0.36930026      10.72764196       0.02460331      -0.09436683       0.14106696
Ar       6.79731901       6.06047147       9.28987846       0.03003265      -0.03844217       0.00332025
Ar      13.50978677       7.03392685      10.70373403       0.02813458       0.08352342      -0.12301585
Ar      14.44668108       3.42048043      11.19393997      -0.01892318      -0.00366793      -0.09728752
Ar       6.50394072       0.88524143       1.67779654       0.02840880      -0.00046627       0.13286887
Ar       3.05524440       2.93393426       1.79344649       0.02053750       0.02608702       0.00194393
Ar       0.16805362       8.19631932      15.44449277      -0.03939866      -0.12934252       0.00348671
Ar       1.79017512      11.20441144      14.68470571      -0.04162963      -0.12687595      -0.07455993
Ar       0.60331677       1.22760516       8.29747475       0.09272829       0.05357544      -0.05479354
Ar      10.55470514      12.42234471      15.29516869      -0.05094016       0.03883253      -0.00500449
Ar       2.45525469       6.27943833       8.92333001       0.02956180      -0.02992853      -0.07781389
Ar       9.43725150       5.12006983      15.68933771      -0.03770219      -0.11029321      -0.00553472
Ar      10.66937900       4.51734270      12.20932705      -0.10471648       0.04480971      -0.02316598
Ar      14.99551346      13.27061769      16.20308226      -0.08392611       0.02234122       0.00024259
Ar       7.70617761      11.69731253       9.88449661       0.03100051       0.01762968       0.03609139
Ar       2.23110322      12.62904818       7.70807256      -0.02357167       0.01266619       0.01177358
Ar      13.73801433       1.35716180       7.44526615       0.07255489       0.03397784      -0.03000703
Ar       3.91510138       8.87586177      17.31414388      -0.01618944      -0.00768518       0.05612136
Ar       8.72281468      12.01119343       1.55113683      -0.00512456      -0.01499258      -0.03507382
Ar      12.56654604       9.99787095      16.56228449       0.05527095       0.06165075      -0.04212019
Ar       7.58988747       9.10022334       7.51943884      -0.00494638      -0.04474321       0.04269790
Ar      13.10018510      17.05286923      17.34641216       0.00023051      -0.07219071       0.02319916
Ar       8.63985167      11.58697420       5.13594647      -0.00904836       0.09325745       0.03116374
Ar      10.07403950       1.89187803       0.96402766      -0.03586743       0.00750159       0.08033715
Ar      10.72828430       7.05081507       0.85255611       0.04678932      -0.03909747       0.04118990
Ar       4.04906564       8.80013739       6.86602055       0.02158617      -0.01014277       0.07553509
Ar      16.80221639      15.41541082       6.92797179      -0.06227699      -0.00715479       0.03421022
Ar       2.13549725      13.38207177       0.64781220       0.10865737      -0.04435144       0.11283393
Ar      14.37036934       8.51378687       6.85072864       0.03541362       0.03850626       0.17440955
Ar      16.24666518       1.45534689       4.89513272      -0.01358043      -0.01112798       0.00822415
Ar       8.12780603      15.38592721      12.26803687       0.04531422       0.03641386       0.00057252
Ar       6.45913024      16.80599208       5.28199950      -0.01887893      -0.08391715       0.06909109
Ar      15.93076011      12.07764347       6.87372652       0.05712233      -0.03741184       0.02719765
Ar      16.78704481      16.71307670       2.20392211       0.02877636       0.02702450       0.07383459
Ar      15.78136583       5.38666368       7.98788703       0.02356317       0.08191615      -0.07060619
Ar       5.41906486      10.32531601       3.89611600       0.06738363       0.02971516      -0.06896563
Ar      11.34747535      10.87361682       7.71241564       0.00780798       0.05185202      -0.02375527
Ar      13.64991135      16.69664530      13.32185545       0.09189327      -0.03853900       0.01915776
Ar      15.93594481       1.07471647      15.18504558       0.01388138      -0.02680404       0.09329061
Ar       8.51775482       7.98696471       3.72883264       0.02532862      -0.00002253       0.01759230
Ar      12.84452437      12.83355700       5.29725290       0.11998338      -0.02613072       0.08902461
Ar      16.55098637      13.28329158       3.46538758       0.01094455      -0.09405686       0.01189114
Ar       3.53586239      16.99260940       7.79765210       0.02157777       0.01672284       0.04244885
Ar       9.05461987       1.36324779      13.20472923       0.08762491      -0.00081214      -0.05877918
Ar      16.80357567      10.70805840       0.58771498      -0.09034487       0.02186166       0.04081014
Ar       4.67082880      14.32200287       9.77442504       0.03627778      -0.02898384       0.04673410
Ar       1.67560583      10.63166312       4.44201808       0.09784618      -0.00290515       0.06697869
Ar      11.97891932      12.34912060      11.81396052       0.00545624       0.02727516       0.05948727
Ar      17.06728966      15.41779944      13.58746451       0.07161719      -0.10020496      -0.08294669
Ar      15.57503501      13.38376795      10.27244647       0.02895128       0.06218271       0.02748351
Ar       5.54926815      12.27331992      16.72609353       0.02218272       0.04459171      -0.00998745
Ar       3.73374046       5.17579459      16.35720145       0.01096606      -0.04947042      -0.00387960
Ar       7.54059628       9.07444815       0.19777719      -0.02754185      -0.01581662      -0.02311608
Ar      15.09374973       9.32998084      13.05724336       0.07189092      -0.04195601      -0.07120445
Ar       4.92721353      13.21777933      13.14077291       0.03894371       0.04830369       0.01736601
Ar       1.28084224      15.03067390       9.99852058      -0.10481090      -0.07955246       0.04739427
Ar      12.04916983       4.42187091       8.43798944      -0.00609351      -0.00350935       0.00550625
Ar       3.88796235       7.90350989      13.88200318      -0.02258587      -0.00296070      -0.08337248
Ar       5.78683147      14.24251277       3.00856497       0.00671710       0.00662286       0.02444293
Ar      12.31509631      13.93232499       1.47550815       0.04149353      -0.13766367      -0.07036506
Ar       3.16395729      15.82596100      15.11382470      -0.02878267      -0.00221668       0.02780014
Ar       1.58351781       1.18331404      11.96145475       0.01121090       0.03629651       0.05776243
Ar      10.23743508      16.18444388      15.49052217      -0.16250577       0.05786945      -0.11570230
Ar       1.55159080      11.56146500      11.00418547       0.01228406       0.08708039      -0.02075787
Ar       7.70152790      10.35927695      13.45165027      -0.01962108       0.06725409       0.01417632
Ar       7.20819458      17.11549693       9.00314766       0.09156693       0.05382884      -0.01431129
Ar       5.55685068      12.90215904       6.53003436      -0.01327036       0.08137230       0.02333288
Ar      12.53606748      15.46762078       8.00192340      -0.02424102       0.04907165      -0.02388119
Ar      13.91386872       6.29551486      14.49545628       0.04332706       0.07869107       0.03924706
