108
Lattice="17.35 0.0 0.0 0.0 17.35 0.0 0.0 0.0 17.35" Properties=species:S:1:pos:R:3:momenta:R:3 pbc="T T T"
Ar       7.36055071       2.06377300       7.28069805      -0.00419213       0.02163476       0.05483578
Ar       8.18545605       8.10551222      10.88836038       0.00948869       0.04994928       0.07288037
Ar      11.95544175       4.18723864       4.54080276      -0.00776052      -0.11591156      -0.00539579
Ar       0.32967250       7.91917131       5.88636326      -0.10670167       0.00618968      -0.03890640
Ar       8.46631625       4.08368702      10.44447700       0.01930258       0.00971909       0.11322892
Ar       4.04389753      14.19517290       3.16177150      -0.01064075      -0.03598583      -0.10199827
Ar      15.25343398       4.18204599       3.23064116      -0.04144111       0.02834191       0.00694110
Ar      15.19089205       5.04810331       7.63061851       0.00385879      -0.04220464       0.00245419
Ar      10.85388525       0.05315830       4.35594409      -0.15524969      -0.00532418      -0.06005469
Ar      15.68100883       6.21641482      17.36575553       0.11050495      -0.01316307       0.10836545
Ar      12.43424235       9.02720722       7.88858706       0.04700010       0.01294666      -0.06579704
Ar       2.95471865       3.76168662       8.93959017      -0.06439867       0.14144330       0.03896961
Ar      11.95718032       5.08373614       0.85782155       0.01768076       0.02240044       0.05039031
Ar       9.42678325       6.29638461       7.70000765       0.00182760       0.16754683       0.04046197
Ar       9.30659143       2.98029530       2.59207319      -0.13809088       0.05492230      -0.05904753
Ar       0.96825283       3.39607060       5.88935514      -0.00753583       0.01869651       0.02089611
Ar      10.43460724      13.29278453       5.82194147       0.01672337      -0.07272010      -0.01451598
Ar      13.27801728       1.69486110       1.92321099      -0.01617024       0.04173088      -0.03153903
Ar       5.47967087       6.57494167       7.85982631       0.01620441      -0.08167870      -0.00221611
Ar       0.65658559       6.53826842       2.67494617      -0.08797894       0.02034981       0.08286096
Ar      14.95005130       8.36557743       3.84117475       0.12754190       0.02897051      -0.02619267
Ar      12.99161697      15.74117910      11.62692322      -0.01189860       0.02185887      -0.04916742
Ar       4.54518557       3.18179863       4.33830806      -0.06403701       0.04679527      -0.08678782
Ar       3.84285931       7.40270529       4.22248447       0.04348127      -0.01646322       0.01080573
Ar       0.94986727       2.77916632       1.36652564       0.01030706       0.00598570      -0.02857447
Ar       6.59863385       1.30135723       0.91759686      -0.03220962      -0.11570412       0.00125322
Ar       4.09996119       2.01321665      15.42491641      -0.02764087      -0.06675133      -0.00711865
Ar      10.55665467       0.11879236      14.37318495      -0.04354903       0.03367870      -0.07747980
Ar      17.27035169       1.35461672      15.42686021       0.05259888       0.04523264       0.01462545
Ar      14.83952131       0.95181350       5.56703628      -0.02503845      -0.01841014      -0.00201175
Ar       7.77594936       5.27419771       0.51204814       0.02468095       0.01169466       0.00713920
Ar      11.83956776       3.30611741       8.16882474       0.00528730       0.00205138       0.03322980
Ar       4.76527007      10.63062836      10.54387546       0.03409050      -0.01656198      -0.05927037
Ar       7.42327645       3.94233737      14.02645066      -0.05700292       0.03011987       0.02464455
Ar       3.45810490      17.04675029      12.61689022      -0.09638282       0.07733256      -0.00913622
Ar       0.68963877       7.48422504      13.00972368       0.12823289       0.03327068       0.00305010
Ar       1.12015021       4.91180801      15.88160136      -0.04910985      -0.09612410       0.03148483
Ar       3.42397260       0.38834728       2.56061199       0.06656086      -0.03904031      -0.01294507
Ar       5.00583597       6.76215480      11.54429982      -0.00003610      -0.04396904       0.08972601
Ar      10.25934485       0.73318137      10.71324282       0.08970691      -0.03543406       0.04216099
Ar       1.96819777       6.82627686       9.72200184      -0.00162187       0.05984614      -0.02986476
Ar      11.77888268       6.92488697      11.33192053      -0.04794140      -0.04913580       0.04430813
Ar      14.75634012       1.58987067      12.60047309       0.05840633      -0.05519953      -0.01643845
Ar       7.52152586       5.64477202       4.61167651      -0.06521831      -0.02125977      -0.00390744
Ar       3.97344415       4.91772976       0.69291389       0.00034180      -0.03917397      -0.02155135
Ar      15.19819016       7.94977424      10.23198394      -0.03378683       0.00888545       0.09750304
Ar       4.17941780       9.43114938      13.81389427      -0.00165804      -0.12662753       0.08567468
Ar       2.51322110       4.14051085      12.67226672       0.01247967      -0.01384078       0.00925140
Ar      10.60200675      10.23460068      15.69279240      -0.03823205      -0.03309390      -0.05143022
Ar      16.67415374       4.28401422      11.10135220      -0.02091152       0.05140281       0.03865117
Ar      10.81647868       6.52220996      14.91165560      -0.09928244       0.04505336       0.01255450
Ar      11.49183018       3.35634445      12.94667899       0.00172373       0.04076097      -0.04873875
Ar      16.00355121      10.72559517       1.83634982       0.02397730      -0.03108379       0.02226048
Ar       6.89660235      16.88573445       9.41576083      -0.04529840      -0.00003083      -0.09635414
Ar      15.63441598      10.43076243       7.59450632       0.00668042       0.01873432      -0.03910751
Ar      16.74386568      13.93540006       9.09069900       0.05833312       0.01609359       0.02445559
Ar       3.11943697       8.71075506       0.69711930       0.06072411      -0.05236959       0.04836041
Ar      10.32337927      11.18579934       2.73547021       0.01175408      -0.08151072      -0.07629016
Ar      13.33839028      12.38139932       0.23249225       0.00547222       0.02236355       0.04524828
Ar       8.46858485       9.26839320       5.90738399      -0.10667220      -0.05533304      -0.01690589
Ar      16.79493072      16.96996734       1.78845735       0.12185753       0.03237326       0.01457005
Ar       8.42224737      14.51110141       2.50402661      -0.03085781       0.02702598       0.01761897
Ar       9.85589362       3.13916863      16.38095743       0.00348210      -0.00504593       0.06772765
Ar      12.98094980       8.56530654       0.24864462       0.04426537      -0.00596625      -0.03321942
Ar       3.42187173       9.85939638       6.98850798      -0.01252785       0.00304844      -0.04942008
Ar      16.68917947      13.88850678       4.96985135      -0.05564747       0.02763979       0.09935087
Ar       3.08251427      12.19479591      16.64887649       0.00926961       0.01788863       0.04471726
Ar      13.58578572      11.59329076       4.55215861      -0.00624552       0.02436986      -0.15983388
Ar       0.58410051      17.07938934       6.29309875       0.00814034      -0.02084158      -0.04372116
Ar       9.76509138      13.33966129      16.46066944      -0.05456712      -0.03727935       0.05200977
Ar       6.47168264       0.01776534       4.07902639      -0.05702040       0.04318528      -0.14700475
Ar       9.96207346      15.96818358       8.17243769       0.02793341      -0.02926323      -0.01760426
Ar      16.78742947      13.45829526      15.92049102       0.04912919       0.09875485      -0.01313520
Ar       0.54284066       0.69841246      10.14373262      -0.07957109      -0.02556669       0.01127184
Ar       6.27826798      11.10092625       3.90451380       0.02827097       0.00911504      -0.05579877
Ar       8.80742750      11.23982638       8.90550706      -0.02177049       0.02915635      -0.09992446
Ar      13.35599820      13.00819303      14.09126068      -0.05961825      -0.03606987       0.11820799
Ar      13.73802553       2.83119620      16.02115368       0.02235657       0.08656754       0.06542746
Ar       9.66637121       7.67717664       2.35942008      -0.00293447       0.07030597      -0.00573391
Ar      13.03863490      15.26122548       2.21933625      -0.01469648      -0.03681847      -0.00069272
Ar       0.97493915      13.46878955       1.80998322       0.04704410       0.01796531       0.06141899
Ar       4.19698740      16.53642246       6.56723147      -0.01754747      -0.01105418       0.02939735
Ar       6.63666940      16.14071043      14.08414106       0.08002069       0.03766469       0.02970490
Ar       0.15374490       9.16593469      16.27088260       0.02827983      -0.08080300       0.03993403
Ar       5.96777028      14.02411520      11.12940506      -0.04020961      -0.00351038      -0.00153292
Ar       1.45012952      10.65016103       3.98373782       0.00323729       0.00375477      -0.03800430
Ar      12.00731857      10.65954325      11.53425849       0.05404832       0.08714142       0.07132705
Ar      16.39480922      11.28152840      12.97111122       0.00710112      -0.02183422      -0.04031309
Ar      12.47318596      13.02467440       8.68105296       0.10710358       0.02111965       0.00330434
Ar       5.93665651      12.38807957      14.74054327      -0.06099954      -0.01740747      -0.03190450
Ar       4.81722552       5.94565733      14.96862765      -0.10345469       0.02386212      -0.01408101
Ar       7.35418802      10.50699882       0.59364486       0.12208271       0.01247459       0.03145467
Ar      13.83175777       8.77953505      13.92221500      -0.03895708       0.02141905       0.03296369
Ar       2.43944113      12.73811095      12.58551309       0.03745996      -0.03396162       0.02642687
Ar       3.12120467      13.13145173       8.54360919       0.09343202       0.01679095       0.07991273
Ar      14.65288956      17.24065994       8.96210121       0.02454403      -0.04678652       0.00451366
Ar       7.68284661       8.17164756      14.58884798      -0.04044444       0.06930103       0.09625293
Ar       5.71002261      14.97099876       0.04501783       0.00654302      -0.00213916      -0.02092496
Ar      13.44337879      16.61415228      16.10741627      -0.01326969       0.03690080      -0.04314872
Ar       2.18030782      16.05247056      15.95307629       0.10572855       0.06054717      -0.15722912
Ar      16.52350983      15.72478655      13.19760005      -0.02313743      -0.02116021       0.00150717
Ar      10.08223475      16.99151458       0.41647373       0.03075776      -0.08734275       0.00196799
Ar       1.14944973      10.20521447      10.14007945       0.05594489       0.01008165      -0.00155575
Ar       8.41312182      11.35321812      12.35173479       0.01155028       0.05519355      -0.03468403
Ar       5.81832503       1.96083122      11.79574429       0.00110134      -0.10399292      -0.08964623
Ar       6.61707027      13.09602321       6.90525796       0.03923326      -0.04725450       0.00250840
Ar       9.73509662      14.52886806      12.12077305      -0.03120157      -0.11351517      -0.03080731
Ar      14.48591765       5.27837308      13.27954904       0.03747685       0.02206889      -0.01350464
