108
Lattice="17.35 0.0 0.0 0.0 17.35 0.0 0.0 0.0 17.35" Properties=species:S:1:pos:R:3:momenta:R:3 pbc="T T T"
Ar       8.84265634       1.31340727       5.32264107       0.02676854      -0.07777411       0.00622736
Ar      10.61139903       6.92535349      12.23243362       0.05359596      -0.08865108      -0.04366121
Ar      12.09675363       2.77234846       5.10881067       0.06324373      -0.00483922      -0.01541704
Ar      17.04837284       8.17903374       6.39885668       0.02047151      -0.01436055       0.05388705
Ar       6.59505655       3.71836654      11.11247136       0.09616035      -0.09148550      -0.04911485
Ar       2.64881688      14.14985732       4.53889522      -0.01611676      -0.08876453       0.04044444
Ar      15.29567420       4.66428207       4.64839901       0.00009047       0.06213352       0.01030680
Ar      12.51847497       7.26187653       5.90303167      -0.05753207      -0.00236538      -0.03044561
Ar      10.26785313      15.94546195       7.09018605       0.07091162       0.01565994      -0.13749835
Ar      15.00310395       5.32379856       0.41550906       0.00172259       0.01092992      -0.01319895
Ar      15.71257762       9.23605954       9.23241531      -0.00520245       0.08054559      -0.08379955
Ar       3.32318773       4.20395004       8.90483260      -0.03395599      -0.01639351       0.02962554
Ar      11.82847938       4.64725157       1.85806926       0.04509250      -0.03590111      -0.01675774
Ar       9.44220100       8.03773622       8.34221023      -0.04743539       0.03041619       0.07576149
Ar       4.92877444       0.45758103       0.30488861       0.01240661       0.00741067      -0.06041615
Ar       1.57721359       3.90459562       5.52266211       0.00200695       0.07329308       0.09833593
Ar      12.05496052      10.39730973       3.04031805       0.00575862      -0.08231853       0.00706964
Ar      10.33579255      16.28626954       2.07923584      -0.00690216      -0.10261236      -0.05867017
Ar       9.04177823       5.59268215       4.84599339      -0.04301330       0.04749247      -0.03543449
Ar       1.40136276       6.77164106       3.07164717       0.10162010      -0.02330745      -0.02575604
Ar      14.69506309       7.81041088       3.26395186      -0.04029560       0.01449676      -0.01683881
Ar      14.68003573      15.33734030      11.76612214       0.08628713       0.02211244       0.01875483
Ar       4.81182031       2.64527781       5.88001850      -0.01410979       0.09163680       0.02544627
Ar       5.70359124       6.74100093       4.08784036       0.02783608      -0.00102475       0.00214922
Ar       0.11426734       2.76149581       2.28535301       0.02212770      -0.01811434       0.07020047
Ar       7.62711402      15.52063277      16.32128479       0.00327596      -0.06408271      -0.02380158
Ar       6.67684574       3.02664077      15.13360836       0.15819338      -0.00493096      -0.01516398
Ar      11.33662164      16.66973598      13.61885182      -0.03338741       0.02256984       0.00826689
Ar       2.33542405       1.74376312      15.63508599      -0.05912092       0.04261556      -0.07947884
Ar      13.47118859      17.05147819       8.15039379       0.02214881       0.04647347       0.02082919
Ar       6.68713912       5.42687094       0.45270480       0.05899080       0.01245605       0.02995623
Ar       8.48936483       4.17904357       7.90860994      -0.09786514      -0.01591258      -0.00185942
Ar       6.59983298      10.85574073       8.69357043      -0.07104002      -0.05392232       0.03664647
Ar       7.14105481       6.86517416      13.92892052      -0.13370892      -0.10215113       0.04911925
Ar       4.61776040       0.46020453      12.53045551      -0.06214155      -0.02083053       0.01982141
Ar      16.85681979       5.35621598      11.68918085       0.06132041       0.04253854       0.03621022
Ar      16.56612928       3.31209011      14.90056731      -0.04627569       0.01479283       0.06797712
Ar       2.77279432       0.34798920       3.46288987       0.07009271       0.04655422       0.04587964
Ar       3.30494863       5.30567248      12.51305475      -0.05418334      -0.12985611      -0.01888142
Ar      10.56012053       0.78032832      10.30340124       0.00037366       0.00230705      -0.00707884
Ar       5.84928504       7.07225098       8.90285345       0.00206511       0.05432126       0.06361967
Ar      13.14162153       6.92907189       9.76468792       0.00681394      -0.01579374       0.01238618
Ar      13.47566799       3.53636885      11.61965472      -0.08847300      -0.00676579       0.04649884
Ar       6.97395728       2.74418441       2.31403394      -0.05727119       0.00132468      -0.09658522
Ar       3.79910024       3.75219794       2.48181443      -0.04530973       0.01507466      -0.00233440
Ar       1.16316731       8.90362868      12.17633310      -0.07307457       0.03453192       0.04592461
Ar       1.99805639      11.86350578      14.48255598      -0.01430757      -0.03622508      -0.04783421
Ar       1.68226700       1.89272259      11.93209292       0.01762508      -0.10488107      -0.05471661
Ar      10.09099989       9.57599281      14.62386741      -0.07930724       0.03941236      -0.03736838
Ar       1.91626339       7.28146394       9.32878072      -0.02752193      -0.05629418       0.02469733
Ar      10.73353048       6.59726520      16.44285946      -0.00585506      -0.01957989       0.01156705
Ar       9.64409260       3.05470234      12.91725765       0.06488125       0.03202533      -0.01127083
Ar      16.74336435      10.30730631       0.59658174      -0.00810117       0.10493197       0.03439723
Ar       7.28936716      14.71723889       9.78057787       0.05890499       0.03814721       0.08236591
Ar      17.29209552      11.95302015       7.60918993      -0.00534934       0.00131859       0.11076714
Ar      15.79417023       0.96671239      10.56490364      -0.04861589      -0.04092327      -0.01689789
Ar       3.46327475       8.48876200      16.69496404       0.01931588      -0.05058544       0.00120893
Ar       9.33004977      11.61085939       0.39640864      -0.04724731      -0.03923109       0.13049920
Ar      13.80287290      13.09242438       2.00507005      -0.04205739      -0.00545136      -0.09429737
Ar       8.02904567       9.83371572       5.15481026       0.05649127       0.07781002      -0.02260499
Ar      14.10509756       1.08067299       2.41516610      -0.00639394       0.00046298      -0.11400255
Ar       9.14618126      13.34228616       3.62631384       0.00058817      -0.07093549       0.04508025
Ar       8.99471474       1.34620620      17.14549635       0.10942810      -0.03413865       0.02004440
Ar      13.49163765       9.67250463      16.47240314      -0.04682088      -0.04280978       0.02704481
Ar       4.09646646       9.63565308       5.79941009       0.00293378      -0.01324689       0.03466964
Ar      16.76170687      15.68915129       8.46706915      -0.02114643      -0.05759645       0.12677356
Ar       1.65694495      13.26360591       1.11620398       0.09623394       0.04520138       0.00912693
Ar      14.19207323      10.76532295       6.24964379       0.06147947      -0.05390067       0.01654418
Ar      16.69256476       1.07539741       5.81968796       0.00577261       0.06048098       0.00152426
Ar       9.15535472      12.85208182      13.56673777       0.12636013       0.00297664      -0.09068659
Ar       5.91593319      16.60860584       5.22883715       0.06232201      -0.01890426       0.06172113
Ar      13.88734217      13.02126354       9.03039713       0.06996301      -0.08993818      -0.06604107
Ar      17.07921416       0.07636429       0.22000894      -0.00865561       0.01531374       0.14950842
Ar      16.21300037       4.58700944       8.11195014      -0.00730408       0.08020844      -0.02501438
Ar       5.23973882      10.35967166       2.73138042       0.05722702       0.02512627      -0.01759583
Ar      10.77794325      11.42488429       6.93512493      -0.00044765      -0.03754265       0.03057092
Ar      13.41050594      12.07415576      13.95949449       0.02571805       0.00778731      -0.06541260
Ar      12.63950722       3.27047986      15.83633507      -0.11819463       0.03573631      -0.04061583
Ar       9.17611211       7.83561051       1.90103416       0.12559390      -0.01263557      -0.01535790
Ar      12.59116349      14.01346136       4.97979870      -0.01639094      -0.01232804      -0.03448515
Ar      16.17332958      13.82542184       4.68709572      -0.06374244       0.01945685       0.02000722
Ar       2.15093630       0.58976284       7.93488832      -0.02048471      -0.03175958       0.02391683
Ar       7.79591183      16.73807428      12.43736061       0.05596440      -0.02912693      -0.06331044
Ar      17.12373157       8.02631999      15.49646438       0.05655483       0.09985356      -0.00384053
Ar       3.79032187      14.45430596       8.16502265       0.05278777       0.06025755      -0.04222858
Ar       0.56334680      10.86014601       4.04647872      -0.05044590      -0.00035668      -0.05357202
Ar      11.51927563      10.31086544      11.03694040      -0.06061502      -0.05195696      -0.05384884
Ar      15.76066130      14.40312365      16.24415647      -0.06918065       0.02972546       0.01108225
Ar      16.97852133      12.38506624      11.86384994      -0.04894341       0.07541533       0.00146682
Ar       5.81558388      12.04774777      16.01736802      -0.00823785       0.06841239      -0.02777365
Ar       3.58561495       4.90704198      16.08265551      -0.06291545      -0.03909676      -0.04081079
Ar       7.07230531       8.93190350      16.51897184      -0.00232780       0.07916553       0.07273319
Ar      14.78317601       9.13625443      12.56564012      -0.09020767       0.09412151       0.03197754
Ar       5.77725496      12.78842826      12.26673821      -0.02646062       0.02909853      -0.01765584
Ar       1.67740904      15.24089616      12.24055932      -0.05754374       0.02079619      -0.01650160
Ar      12.64885625       3.77213369       8.32829153      -0.07172429       0.05356269       0.00957775
Ar       4.79312111       9.49029886      13.54420193       0.06479587       0.03542698      -0.15448312
Ar       6.04226907      14.15534187       1.90171940      -0.06546875      -0.06515203       0.06048222
Ar      13.40739469      17.15875426      16.51996782       0.05678684      -0.05555759      -0.01800648
Ar       2.97779249      15.46516198      15.80426018       0.00781996       0.03152766       0.00177510
Ar      16.22832017      17.17812969      13.99120454      -0.02467794      -0.00566033      -0.08871508
Ar      11.29236159      14.39542308      16.38107215       0.04058311      -0.00921347      -0.05264837
Ar       3.11342968      11.59298367      10.41520904      -0.03105867       0.06548514       0.03997041
Ar       8.17638421       9.64131868      11.79551972      -0.03327664       0.00926114      -0.00334761
Ar       7.23698116       0.87445268       8.54853676       0.00208324       0.00527031      -0.05841440
Ar       5.90725081      12.69259442       5.38994765      -0.02885986       0.03951518       0.09685626
Ar      10.90281067      14.13460563      10.77081143       0.00128915      -0.01279112       0.04822900
Ar      13.75421907       6.06841044      14.16042383       0.08742441      -0.01500126       0.02402158
