108
Lattice="17.35 0.0 0.0 0.0 17.35 0.0 0.0 0.0 17.35" Properties=species:S:1:pos:R:3:momenta:R:3 pbc="T T T"
Ar       9.79965022      17.14361849      10.39692509      -0.00602083      -0.03723471       0.04975625
Ar       6.73231392      11.84332409      13.32738203      -0.05288278      -0.03847767      -0.05167387
Ar      14.48511785       2.02967641       3.46040738      -0.03867662       0.02335252      -0.05290046
Ar      15.44693477       5.87354191      14.33364423       0.02746293       0.01190089       0.04346775
Ar       4.84593926       6.76418863       6.54458761      -0.01376988       0.09710913      -0.05077856
Ar       6.06232310      13.90576787       4.16610556      -0.05481080      -0.03479636       0.00827381
Ar      12.28627086       4.43070182       7.25299837      -0.09530636      -0.05009419       0.01670237
Ar       7.99692473       6.37108762       4.42250991       0.01382495      -0.01920755       0.02096549
Ar       6.35788397      15.02770780      10.62173880      -0.06707405      -0.05001386       0.01535483
Ar      13.85699763      16.75202619       0.74322293       0.09628427       0.09144909       0.02860163
Ar      17.00876781       8.49654460       9.34174284       0.12387333      -0.03228887      -0.04693237
Ar       2.51655674       4.90261870       8.85856075      -0.01547879      -0.13232197       0.04040900
Ar      13.08699391       5.05212823       1.08239771      -0.04822173       0.02543935      -0.04922788
Ar      11.05196079       1.84060853       0.91392000       0.01389190       0.06124794       0.09956089
Ar       1.47225860      10.12698039       0.31382899      -0.04486686      -0.08284551      -0.01979391
Ar       4.15586203       8.40533137       3.16045681       0.04641019      -0.03694448       0.03211167
Ar      11.21480336      12.89528353      14.00374234      -0.00083977      -0.02788072       0.05083149
Ar      12.21512227      12.13369508       0.52696197      -0.12446278       0.05214759       0.02051023
Ar       4.87028322      15.87160779       7.41080476      -0.06349683      -0.05035031       0.00402857
Ar       6.07762907       4.50845565      14.83600886      -0.01766070       0.03570131      -0.05689199
Ar      15.30500785       5.58206552       4.50161288       0.05117751       0.02944899      -0.04154503
Ar       2.84630905      14.61457408      11.50319854      -0.01732120       0.05913489      -0.05963371
Ar      11.31617584       7.18637982       4.66339083      -0.08546174      -0.00202022       0.05039496
Ar       5.63015022       0.49328922       4.34087783       0.06079157       0.00178097      -0.01821521
Ar       1.41688133       3.12867729      15.14412442      -0.03536175       0.05911383       0.06743048
Ar      15.33865319      10.33038553      16.50531323       0.00923761       0.07435354      -0.02100114
Ar       1.32713429       6.26954040      12.06784415       0.02531187       0.05603069       0.09545710
Ar      14.21238165       2.07542118       9.20416901       0.11553386      -0.03535043      -0.09331703
Ar       7.10327521      10.14522933       9.81887046      -0.03507575      -0.03815504      -0.00544060
Ar      16.37750957      15.61246882       3.31975101       0.05551303       0.08049983       0.08101334
Ar      17.03230064       0.38487408       0.82238856      -0.00284871       0.04104243      -0.02524322
Ar       8.38201242       3.74082570       6.88966236       0.07471552       0.00113398       0.01634626
Ar      13.33588386       8.17186317       7.88125988      -0.07134543       0.04518151      -0.10652496
Ar       7.54494442      13.17361796       7.98153988      -0.08341077       0.09935592      -0.07308910
Ar       2.32531843      16.66554297      16.13815588       0.02505648       0.07233491      -0.02445703
Ar       0.02361804       3.05534477      11.01073942      -0.00116783      -0.03349765      -0.03896564
Ar       5.39035287       5.73223251      10.85459997       0.03181968       0.07290777       0.00476852
Ar       1.91829788      13.63575168       1.04199910       0.09726115      -0.02685880       0.05388495
Ar       4.78566199       8.61165662      12.87433484      -0.04298459       0.02522456      -0.10083256
Ar      17.22815256      13.89266846       9.61442075       0.00621097       0.00628932       0.00795681
Ar       5.60949117      10.22940125       5.84085093       0.02467079       0.07870257       0.00026698
Ar       9.54732791       2.60647037      13.85406028       0.03165877      -0.03579243      -0.01291313
Ar       8.84273459       7.35660109      11.61474481      -0.03561349       0.07500346      -0.02278436
Ar       3.85311599       6.28582195       0.13288782      -0.03901037       0.02340050      -0.04942227
Ar       4.54756513       2.05594320       0.26004069       0.09635173       0.03543862      -0.02796808
Ar       1.61356139      11.41234148      11.43323799      -0.09091759       0.06379191      -0.00841885
Ar       6.14826514      14.16777215      17.34958360      -0.04941191      -0.01833569       0.07235411
Ar       2.48529189      16.74335826       2.77055639       0.00804116       0.01484589      -0.02810781
Ar      12.82874157       3.33496902      15.41347183      -0.02627656       0.03735106      -0.02052768
Ar       1.45515516      15.50992614       6.29995229       0.06198230       0.01377748      -0.07185586
Ar      12.22917507       6.06646962      13.40125572       0.00782326       0.04032321       0.10049025
Ar       9.17249268       7.67169273       7.86041793      -0.01379572       0.04175476       0.04362816
Ar      12.55315794      14.54629022       3.44868198      -0.01482355       0.05333182       0.02343455
Ar       5.96579406       1.42712281      12.70055999      -0.00128923      -0.06004868      -0.03364663
Ar      16.67314427      12.68425834       6.37573175       0.10258638      -0.15780703      -0.03893003
Ar       9.55222418       4.24363357      10.03481547       0.03656922      -0.00909182       0.02091324
Ar       4.65538638       4.62640200       3.45212780      -0.03649454       0.00412389      -0.00356642
Ar       9.56057925      13.11085338       2.75129194       0.03315768      -0.06539645       0.04305962
Ar      10.38363717       3.74789025       3.78209370       0.04989685       0.00060893      -0.00065994
Ar       9.12035278       9.87584220       4.98732195       0.06223042      -0.12443295      -0.10180256
Ar      14.31475070      14.04364059      15.95773468       0.05438641      -0.01707762      -0.00070145
Ar       8.91125657      11.83468028      16.28600526       0.01443777       0.02956155       0.13384625
Ar      11.22964361       0.86479569       5.17281498       0.08902570      -0.02929520       0.00775621
Ar      13.97212029      15.69410495      10.38192601      -0.04286919      -0.02304119      -0.01767963
Ar      16.02442773       9.27043546       5.46249692      -0.05462828      -0.00626880      -0.05350665
Ar      15.33394972      12.19614640       2.84033441       0.00462406       0.01326166       0.04496362
Ar       7.19345994       7.18939422       1.15701166       0.01652401      -0.00472136       0.00803891
Ar      12.54441396      10.60992395       4.35219542       0.04789599      -0.01112016       0.02233283
Ar      15.92919636       3.21519483      17.00864464      -0.03147148       0.00670148      -0.07301066
Ar       2.43453941       0.60913597      12.60781716      -0.07666250      -0.06624388       0.01371985
Ar       4.82468570       3.11346603       6.97640567       0.00999208      -0.08832916       0.03310143
Ar      10.83495564      10.83633103       8.61753880      -0.01083204      -0.08751139       0.07594878
Ar      11.72280987       9.37223117      15.54749944      -0.03637833      -0.03429285       0.02167622
Ar       0.83651830       4.08094318       3.49847440      -0.00373089      -0.01098419      -0.05651192
Ar       3.46298036       8.89295883       9.37168240      -0.00800867      -0.01306055      -0.05549016
Ar      11.67457846       9.66787178      11.89619076      -0.06239831      -0.00929078       0.02329191
Ar       9.84176929       5.19096756      16.71821316       0.00768172       0.02625821      -0.03061498
Ar      16.56064499      16.77815140      12.50102249       0.03466219      -0.07960270      -0.03465112
Ar       2.18868912       9.29523089       6.29040298       0.03972083       0.01194725      -0.02050627
Ar      10.66573842      15.45852332      16.94885697      -0.01315640      -0.03854545      -0.00295800
Ar      10.58546329      14.60867035       7.55511382       0.00540259      -0.06170151       0.02748271
Ar       2.49750999      12.67311565       4.31115915       0.04520394      -0.00004305      -0.05763792
Ar       7.57657104       3.05239347       1.67713056      -0.05121177       0.06269107       0.03524617
Ar      16.58536307       6.22900029       0.98596235      -0.03483148       0.08378600       0.01269268
Ar       3.39092117      12.97501817      14.87572073       0.01851782      -0.05725215      -0.09331455
Ar       6.81102390       1.28468096       9.41431922      -0.03887835       0.05158007      -0.01781729
Ar      15.10202559      12.50253254      12.41842815       0.06914251       0.04708405       0.00312207
Ar      14.97372837       9.23578973      12.69899718      -0.01811212       0.00020785      -0.01057693
Ar       7.13677606      10.59760450       2.04460202       0.02874683      -0.02988986      -0.00022859
Ar       8.08097189       8.03465083      15.15430787       0.00941249       0.08923789      -0.02275113
Ar      16.42522285       5.28636088       7.90369627       0.00342103      -0.04643084      -0.01874373
Ar      14.11069986       8.36986076       2.40923159      -0.12539649       0.04104557      -0.00724693
Ar       0.05332720      14.10838857      14.59316399      -0.02758020      -0.08402114      -0.01270770
Ar       8.68603854      15.56949200      13.82305390       0.02476518      -0.01230890       0.07683982
Ar       0.86056049       9.06892521      14.18289397      -0.02491479      -0.01740537       0.07768419
Ar      16.79491378       1.43456889       6.69206836       0.00978758      -0.03156760       0.08913710
Ar       5.14140820      10.21150459      16.35382511       0.00369900       0.05182894       0.01271944
Ar       8.80568037      16.43633038       2.77577735       0.04199855       0.05289353       0.07900162
Ar      10.51811547       8.64741356       1.61557673       0.09108124       0.04752655      -0.01375315
Ar       2.71241216       1.30455499       9.13147604       0.08220054       0.04193256       0.00669438
Ar      14.33809107       5.20155356      10.96959634      -0.00607555      -0.12041205       0.06556095
Ar       7.95833423       0.82862623      16.32316573       0.03298030       0.07386408      -0.03331351
Ar       3.83400773      12.69114200       7.74953378      -0.05196663      -0.07231763       0.01369021
Ar       5.33563000      15.71372045      14.33041670      -0.03093117       0.00835942       0.01675366
Ar      13.02602063       0.05570515      14.55761978      -0.09040883      -0.09360570       0.01771276
Ar       8.19861415      17.00077536       6.86011284       0.07677344      -0.02007535      -0.01083182
Ar      13.74319780      12.56400836       9.09281885      -0.07738420       0.04226118      -0.01250458
Ar      14.44488303      15.63784115       6.60359876      -0.00742200      -0.02100415      -0.01686052
