108
Lattice="17.35 0.0 0.0 0.0 17.35 0.0 0.0 0.0 17.35" Properties=species:S:1:pos:R:3:momenta:R:3 pbc="T T T"
Ar       9.84012903      13.75868400       3.52284924      -0.02662490       0.00340230       0.00448490
Ar       9.45400429      10.08994319      11.38494214      -0.05989692       0.08066019       0.03815419
Ar      11.01504433       1.75599898       3.22024578      -0.06002830       0.06891985      -0.05077419
Ar      16.22669389       6.62981858       2.80446093       0.04044139       0.04283316       0.09592150
Ar       5.83011357       4.53230260       8.91032184       0.01420714      -0.04836100      -0.03365797
Ar       5.78393601      13.62981854       2.94082084      -0.01799870      -0.06833345       0.01434869
Ar      12.49702267       4.84675736       7.84867677      -0.06508980      -0.03294293       0.00550719
Ar      10.87565778       8.74277785       7.15715848       0.00260070      -0.05863819       0.01533832
Ar       9.10212176      13.94823739      10.84156366      -0.06299015       0.01226566      -0.00043788
Ar      14.38844799       3.41847541       0.90815967      -0.02648077       0.04932536       0.01418990
Ar      17.04003314       8.91465069      11.33424815      -0.00449416      -0.01256244      -0.02892129
Ar       2.75562555       2.28566565       7.99327983       0.05619467       0.05818172       0.07020129
Ar      10.75364398       4.22743152      16.82839500       0.01559665      -0.05486185      -0.08936234
Ar      10.97022055      12.51461687      13.41795973      -0.00300879       0.10784834      -0.05702645
Ar       2.97255502      15.66506838      17.09073203       0.01708761       0.00233763      -0.03451103
Ar       2.49728094       5.67147760       6.22052607      -0.07451247      -0.04654604       0.04230372
Ar      13.91248439       7.72567312       5.78848738       0.01872420      -0.00107485       0.02945852
Ar      10.12007067      14.22875817      16.30988892      -0.00518286      -0.00738634       0.03419568
Ar       9.83206803       0.87224969       6.53132272      -0.01884748      -0.01495538       0.01156041
Ar       5.55528613       8.64015135       0.09831224      -0.03582852      -0.00342320      -0.04430750
Ar      13.07830859       4.13908921       4.39763282      -0.01967816       0.14378109       0.05590216
Ar      15.95377728       2.15158603      10.12761925      -0.03621216      -0.02537807       0.02753856
Ar       6.31023837       4.25484672       5.05023223       0.02258569      -0.00958045       0.03798376
Ar       6.60004253       5.08797177      16.30001745      -0.08447278      -0.03927588      -0.10040371
Ar       0.41890617       3.42652411       2.58675778      -0.02449744      -0.03183158      -0.02518035
Ar       6.48312886       1.86524879       0.12386766       0.06751747       0.02632434      -0.01928972
Ar       5.36662926       3.83261038      12.76330793       0.00866244       0.03795716      -0.04159092
Ar      12.29251650      15.86074626       9.75211854       0.01040884       0.03168613      -0.03987673
Ar       2.90139079      10.36895570      15.49918088       0.03237163      -0.03003120      -0.07374801
Ar      15.47844209      14.67051292       4.12134718      -0.05660804       0.09986303       0.04366490
Ar       8.46396735       4.65875941       2.07760064      -0.01544226      -0.08979536       0.04669151
Ar       9.20742530       3.67959078       8.45502082      -0.01803296       0.03812499      -0.00377308
Ar       0.83280501       9.25079285       7.42549790      -0.01548089      -0.03136832       0.01942635
Ar       5.69180749      10.70697770      11.96184106      -0.09391526      -0.02296722      -0.03537797
Ar       1.16532253       0.56542665      13.03898987      -0.14372189       0.00047535       0.06781939
Ar      15.46454413       6.46504684      16.29739519      -0.03709454      -0.00490014      -0.09783441
Ar       1.65250035       7.23157267      13.90506216       0.09567544      -0.04519540      -0.00106433
Ar       3.44909939       1.20549529       2.67627817      -0.01361658      -0.02331466      -0.01102473
Ar       1.32308736       3.86726499      12.83932314       0.03970145      -0.11469434      -0.09021082
Ar      15.56001651      15.33452805       8.28662656       0.03083642      -0.12108273       0.01994222
Ar       4.80792874       8.20598893       7.53226169      -0.09277192       0.02441998       0.04162072
Ar      13.42244377       8.82466604      12.96412363       0.06825381      -0.11902436      -0.03966163
Ar      15.45446557       5.67167204      11.79747138       0.03203415      -0.02649107       0.02118547
Ar       3.36312799       5.45463749       2.25085688       0.02407620      -0.02433296      -0.05312897
Ar       3.37373108       3.66206605      16.59234064       0.03826090      -0.03269690       0.07514197
Ar      16.41183625       9.98613278      15.04880463      -0.09363272       0.04148219       0.01190794
Ar       3.44834219      13.61269262      12.95576983       0.02856079       0.02439119       0.08106225
Ar       0.70388622      17.17221141       5.43244398      -0.03012682       0.00806837      -0.02155812
Ar      11.23379446      16.17031913      13.72921491       0.03743787      -0.04215382      -0.01354374
Ar       3.00075423       6.30176350      10.80541939      -0.07888512       0.03524057       0.01833138
Ar       8.79092352       6.96956935      14.55546830       0.06717885      -0.03283755      -0.04564276
Ar       7.26344963       7.40087855      11.04706254      -0.01073153       0.14051377      -0.01947899
Ar      12.66672621      16.10879054       1.48837313      -0.00537125       0.01097684       0.09638241
Ar       5.48041117      15.37136365      10.26053967      -0.03615511       0.05527181      -0.04190962
Ar       0.78616951      13.46959475       6.60005648       0.08862735       0.04408366       0.05667219
Ar      11.87598296      15.49195337       5.91030762       0.01339470       0.06965928      -0.03717746
Ar       1.20851582      11.81032392       1.28727213       0.05178846       0.01544165      -0.00742690
Ar      11.79820382      10.09819227       3.76338239      -0.00908799      -0.02189885       0.05526420
Ar      12.35928625       6.52115594       1.77498042       0.07932628      -0.08224214      -0.06887280
Ar       6.50696516      11.63843550       8.20699928       0.02215164      -0.01964667      -0.09984614
Ar      17.03272864      15.43312216       1.16388456       0.01180141      -0.04361290       0.04950773
Ar      11.97132845      12.01222249       8.37123648       0.10039197      -0.00010690       0.05949246
Ar      10.24486397       0.47444083      16.82894671      -0.02155852       0.03486917      -0.02100466
Ar       9.78719334       5.56124885       5.15266102      -0.10001666      -0.02110463       0.08877036
Ar       1.63972993       8.78986577       3.76192137      -0.03172351       0.08450545       0.02677482
Ar       2.48897131      14.96035289       3.27910887       0.01045009       0.01820222       0.08623755
Ar       4.99087868      12.77914067      16.57367804      -0.00889920      -0.01227843      -0.02774334
Ar      10.76598343       6.67181875      11.12224072       0.00526575      -0.00243629      -0.01805390
Ar      14.89995538       0.68916685       3.81578354       0.07817443       0.00141877       0.02204197
Ar       4.55510913      17.03581667      14.03759079       0.01677607      -0.03135232      -0.03636573
Ar       6.06737966       0.92191409       6.68599253      -0.02413626       0.13628505       0.01256726
Ar      16.48035044       5.93240070       8.55131209       0.05189190      -0.08381409       0.10959802
Ar      14.81244929       9.20262903       1.16302972       0.00202739       0.00350051       0.05170291
Ar      16.98119609       3.20150902       6.43244037      -0.01113772      -0.01500660      -0.06069742
Ar       8.33118656      10.53563930       5.20153309      -0.00874316       0.00164891      -0.14650587
Ar      14.12550548       8.81008286       9.54340114       0.07663195      -0.05463196      -0.01912568
Ar      12.43382143       5.23595748      13.67577133       0.04463197      -0.02748347       0.03748311
Ar      14.79749421      17.19861356      16.00884328       0.04141117      -0.06390600      -0.05934420
Ar       5.16704692       8.17684309       4.01401413      -0.01999535      -0.03888690       0.09563844
Ar      13.70869810      12.71649446       1.74966940       0.10522058      -0.02048436      -0.13445393
Ar      14.81715810      11.07448345       5.07952306      -0.07064426       0.10107796      -0.05136889
Ar       3.77484345      15.63673151       6.54241200       0.03305256      -0.03492075       0.01448028
Ar       8.05790711       0.12340072      13.82391537       0.02032621       0.04004962      -0.09365756
Ar       1.69375208       7.91273855       0.36120068      -0.04931503      -0.00555107       0.06289989
Ar       1.40374716      16.46971830       9.64860360      -0.06549667       0.02194301      -0.08368761
Ar       3.77767798      12.05559771       5.48988379       0.03101965      -0.00966156       0.04366486
Ar      13.50067904      14.05003001      15.70220572       0.02306989       0.05740024       0.09509107
Ar      14.92555632      16.66889848      11.90409314       0.00410847       0.01822409       0.07053561
Ar      14.28411760      12.05474978      12.02882946      -0.01923687       0.03937470       0.13077486
Ar       8.08205559      11.42931617       1.15196636       0.10087871       0.09285242       0.02187993
Ar       9.22712400       3.72034375      13.18619945      -0.01601977       0.06209140      -0.10561913
Ar       9.15155651       7.79430854       0.97698800       0.05964498      -0.06690493       0.02066197
Ar       0.60035128      13.90763838      15.08749380      -0.05240681      -0.01927383      -0.07866231
Ar       7.43021796      14.00790782      13.95073190       0.01254830       0.09429052      -0.02514867
Ar       0.22007149      13.27648678      11.62198560      -0.05122497       0.01013937       0.05211162
Ar      13.43402454       1.31285942       6.82906570       0.07329476       0.01580765       0.00170539
Ar       5.08718657       7.45597661      13.56017982      -0.04186860      -0.14131066      -0.02666829
Ar       7.38097190      17.22512893       3.24775854      -0.03191132      -0.02001320       0.03003661
Ar      11.71803552       9.95263326      16.71393164      -0.02858857       0.04175434      -0.02033626
Ar       0.85014544       1.10245670       0.01873006       0.04307179       0.00761996      -0.07488631
Ar      15.84882762       2.87456120      14.11533754      -0.09088490      -0.03165509      -0.05861054
Ar       6.83704558      15.67189675      17.30007798       0.04205745      -0.01811445       0.01809857
Ar       2.91292414      12.09456069       9.48102576      -0.02529507      -0.03905608       0.03839710
Ar       8.21245757      10.58434165      15.04945628       0.03101689      -0.00469915       0.04790959
Ar       7.51989283       0.69875005       9.81864773       0.06627064      -0.03224562       0.03033559
Ar       7.88485421      14.76969612       6.65349996      -0.02699819      -0.03367938       0.02159973
Ar      16.05588269      11.51180091       8.81435073       0.06138412       0.10079220       0.01336392
Ar      11.66217464       1.67791627      11.57414977       0.00249878      -0.04536716      -0.03700206
