108
Lattice="17.35 0.0 0.0 0.0 17.35 0.0 0.0 0.0 17.35" Properties=species:S:1:pos:R:3:momenta:R:3 pbc="T T T"
Ar       9.04835779      11.85501458       4.39858644      -0.02640360      -0.09101060       0.06299158
Ar       7.30425070       7.39951831      10.10733306      -0.00561488      -0.06808039       0.03131506
Ar      11.79850144       2.01691562       5.58239350      -0.05864550      -0.04609714       0.04866344
Ar      16.37273601       7.69481086       2.13372717      -0.07926024      -0.03203023       0.04179580
Ar       4.88350150       8.05497254       7.33296905       0.01097992      -0.02666329       0.03243241
Ar       5.49313093      13.36608701       3.81039427      -0.04945924       0.02931049       0.00980603
Ar      14.72982935       5.07169506       6.74331677       0.05244886      -0.01167350      -0.03331518
Ar       8.49369964       8.45266222       6.40056970       0.08959666      -0.05706844       0.00709638
Ar      10.60350189      15.39768328      10.09290613      -0.07704836      -0.02751498       0.09121507
Ar      14.22072722       2.05179645      16.67096736       0.05409014      -0.09519766      -0.01809572
Ar       0.30532431       6.66837864      10.52667912      -0.05534262       0.00298570       0.03116526
Ar       2.89690545       5.28803071       8.17866461       0.00892276       0.08617157       0.05656259
Ar      10.84685905       2.41883877       1.07414977      -0.01518472       0.08241207       0.03352949
Ar      12.42582621      15.08486138       0.19249972       0.07512083       0.08332307       0.00606755
Ar       2.31600489      10.20872654       2.18008426      -0.08624189       0.08162966       0.04040730
Ar       3.63828467       6.33436215       4.22630987       0.04424761       0.05820825       0.03926741
Ar      12.22024470      10.86231950       5.69120958       0.08958543       0.04160376      -0.01773892
Ar      12.35869360      13.77633145       3.79424237       0.01281539      -0.04399002       0.12204713
Ar       7.14420976       0.22709590       9.15463921      -0.01412170      -0.02409331       0.05929553
Ar       4.86863131       7.18744846      15.35136977       0.06692455       0.05813697       0.06358141
Ar      13.04489935       5.34727425       1.21888972      -0.03576997      -0.03889762      -0.00270588
Ar       0.50729779      16.44871341      12.25333212      -0.05760671       0.02000922       0.04671801
Ar      10.06928628       5.30499229       3.06733662       0.10279002      -0.00365161      -0.00790650
Ar       6.08906292       5.83047794       1.73007090       0.00623708       0.01331436       0.08757542
Ar       0.13809560       4.67289232      17.24539825       0.01028621      -0.01951263      -0.05775242
Ar       2.98990169      14.10063560       1.59213328       0.03137297      -0.04339847      -0.16289458
Ar       4.27244756       4.78170511      11.58941271      -0.03410153      -0.10957521       0.01705483
Ar      13.95002270      16.11834291      11.06872752       0.08391658       0.00569802      -0.05014683
Ar       6.04214400      10.65699335      10.52399736      -0.02393058      -0.02970297       0.02825092
Ar      16.03616620      15.12879369       4.78470967       0.00494066      -0.01173159      -0.06289651
Ar       1.94085617       2.91741910       3.53076502      -0.01329812      -0.05604589      -0.04581610
Ar       7.82037291       2.47436122       3.44108775       0.01629270       0.00288695      -0.12599378
Ar      15.67300082       8.73087306       5.90949302      -0.05110268      -0.03235174      -0.09808070
Ar       5.17120787      13.96034416       9.74122799       0.01560915      -0.01483749      -0.07614075
Ar       3.91294743      17.18073746      15.78028896       0.04151751       0.03221860       0.01449944
Ar      13.96440893       5.65201514      15.17900331       0.03809090       0.12523305      -0.05257443
Ar       1.27939526       2.53819611      14.67121200      -0.12940292      -0.04054981      -0.04103085
Ar       2.73240933      16.62871462       4.27940039       0.01266386      -0.09088628      -0.01485940
Ar       5.97674390       2.16723308      13.57764509      -0.00884181       0.04803403       0.03011148
Ar      16.59912039      16.04388830       8.51442913      -0.00884308       0.01586056      -0.02965738
Ar       4.22990272      11.87151905       7.09868499      -0.03961046       0.05293197       0.03849376
Ar      10.86464151       7.03117021      13.24546978       0.03885828      -0.00102203       0.05668046
Ar       1.36546369       6.92934148      14.13835707      -0.07326256      -0.07682209      -0.00344598
Ar       2.76567449       6.65797086       0.62200570       0.02102927      -0.06192667      -0.06260402
Ar       3.91944130       3.12832948       0.47134390       0.04708360       0.10996127       0.09383683
Ar       4.07342619       8.13872587      12.04577930      -0.03520499      -0.06044480       0.01062176
Ar       4.85765085      13.59178234      15.70015244      -0.02812207       0.05189619       0.01655100
Ar       1.64486280       1.76553945       7.05920048       0.01408567      -0.02442833       0.05736549
Ar      11.89646758      16.98944011      14.76702406      -0.00976551      -0.03442083      -0.02405008
Ar       2.69609673       2.07697109      10.84199897      -0.01255200       0.00234421      -0.02690779
Ar       7.50482524       5.73385588      13.41402316       0.03007704       0.10956551       0.06016490
Ar       9.05984576       3.39877287       7.14585565       0.04789625      -0.06213713       0.01520876
Ar      13.30269225       0.23273947       2.78609269       0.01747685      -0.04882601       0.00776936
Ar       7.38723574       3.57208390      10.33195148       0.06078481      -0.01738974       0.00587149
Ar      16.40873069      12.07505866       7.47873347       0.00939965       0.00245605       0.04510008
Ar       9.58070054      17.20004441       6.75602384       0.03760068       0.06834686      -0.01590333
Ar       5.91246959       9.26936428       3.72509501       0.04060411       0.08743865      -0.01068367
Ar      10.81906860      11.62008573       0.75108870      -0.04295155       0.04232864       0.01652001
Ar       9.68442272       6.11540838      16.85557265      -0.02170531      -0.04052377       0.02740618
Ar       9.30882192      11.02624196       8.73563362      -0.01698109       0.02328829      -0.01166310
Ar       0.86644797       0.93954491       0.82264756      -0.03858682      -0.01477091      -0.03015280
Ar      10.23691851      13.70427132      15.02123312      -0.02058064       0.03415947      -0.04837276
Ar       9.43847528      16.57318309       2.96354745       0.00183076       0.02880072      -0.03565070
Ar      13.05085407       9.65891559       2.48498377       0.00641977      -0.02719384      -0.04560503
Ar      15.38267367      12.10127491       3.31146374       0.09185925       0.01299265       0.02665829
Ar       1.43699373      12.76966119       4.89845225       0.01305804      -0.05681905      -0.00986128
Ar       6.41580659      10.81150075       0.44849418       0.03710694      -0.02192870       0.08637220
Ar      10.92876531       6.91893704       8.50465541      -0.01650968       0.01023306       0.01899981
Ar      15.69795002       3.19881234       2.67311722      -0.01359620       0.06911929      -0.05375358
Ar       4.55615657      16.43641356      12.20964909      -0.07146386       0.03158918      -0.07810673
Ar       5.41733770       2.62255505       7.09977713       0.00638407      -0.03107320       0.15618997
Ar      14.01906659       5.58203423      11.07808234      -0.02290884      -0.02151318       0.05935758
Ar      14.52765694      11.75868697      17.09270791      -0.01431807      -0.12385474      -0.00958276
Ar       0.37105393       5.72679730       5.05952727       0.01671262      -0.01485908      -0.07087609
Ar       6.74748795       5.53357502       5.24136240       0.04247062       0.00880702      -0.02901212
Ar      12.34763547      11.36146716      11.20964084      -0.03777639       0.05473765      -0.00257609
Ar      11.25379821       3.30159790      14.99339272      -0.01229629       0.05940993      -0.01216016
Ar      15.32494905      16.12107198      15.47858861       0.03265748       0.04834918       0.00072409
Ar       1.74041403       8.74045155       6.23553477       0.01703548       0.03153467      -0.03929128
Ar      16.47328731      14.81931765       1.01917985      -0.04422127       0.01467644      -0.00096601
Ar      12.97895736      15.54989384       7.13027518       0.05208953       0.11558780       0.00172189
Ar       2.68304813      16.40652442       9.07985451       0.00939582      -0.04945505      -0.04817975
Ar       7.62614593       2.34303795      16.50526519       0.08893975       0.03309540      -0.01034893
Ar       1.17629174      10.70593354      15.60639042      -0.03517407       0.03479680       0.02157407
Ar       2.44223194      11.68381869      12.65404601      -0.05684276      -0.02804618       0.06861937
Ar       6.23845666      16.44337410       5.34872241       0.08883285      -0.02497985       0.02904085
Ar      13.67481039      13.56308685      13.79632153      -0.03459872       0.05322773      -0.03732715
Ar      15.92047328      13.21005848      11.06302063      -0.07091409      -0.02943483      -0.01767737
Ar       9.03871126       9.90420468      12.21749067       0.01211213       0.05195309       0.00839663
Ar       9.15705558       9.20798361      15.76718724       0.12099821      -0.03356122      -0.01410703
Ar      11.34182991       3.31442659      10.88278643       0.02374935       0.15098253       0.02943389
Ar       9.15818610       8.60218386       1.88075567      -0.03250964      -0.01055460      -0.07881227
Ar       1.25040552      14.37889733      15.26409197       0.05168196      -0.01244453       0.03860592
Ar       7.69547003      16.49189796      15.24641753      -0.00675344       0.04595268      -0.11311088
Ar      15.51185935       9.78638329      13.88989270      -0.03370764      -0.01689597       0.10758213
Ar      15.24072652       1.43381272       5.55782322       0.00891538       0.02042559       0.00292233
Ar       5.60256946      10.55809014      14.02474766      -0.00824294      -0.02524264      -0.07214056
Ar       5.44257237      16.85149277       1.85149198       0.02209527       0.01265837       0.01049414
Ar      12.45830040       8.67576512      16.57876630      -0.08023077      -0.01142152      -0.02341252
Ar      14.87906319       2.55489013      13.03750410      -0.14006448      -0.04666266      -0.07157077
Ar      17.25758115       3.18717862       9.50954236      -0.01078249      -0.10724134      -0.01400002
Ar       7.75797410      14.18666496       0.50296576      -0.04973829      -0.01428606       0.00672799
Ar       1.84754715      10.44917471       9.70695372       0.00732541       0.02305443       0.00058897
Ar       7.63585674      13.93646260      12.49334546       0.03063122      -0.00407436       0.04950336
Ar       9.32201508       0.47334453      12.68581299      -0.13559396      -0.05408810      -0.05636743
Ar       7.85333687      13.88358788       7.05440044      -0.02448890       0.03919188      -0.01822313
Ar      14.78397651       8.87640290       9.33427545       0.06044319      -0.06675564      -0.00276489
Ar      13.68581949       1.60348012       8.52867552       0.04618482      -0.03327002      -0.07967907
