108
Lattice="17.35 0.0 0.0 0.0 17.35 0.0 0.0 0.0 17.35" Properties=species:S:1:pos:R:3:momenta:R:3 pbc="T T T"
Ar      10.22057156      16.14376336       5.03235578       0.03496719      -0.03612999      -0.02671931
Ar      10.28011675       8.50655139      14.14205806       0.02721122       0.02758913      -0.04441992
Ar      13.16994201       2.36799565       3.70436100       0.07674406       0.02192772       0.01819471
Ar      17.19935692       7.63863160       4.08434723       0.01334647      -0.04681174      -0.00798041
Ar       5.12795469       2.86432160      12.32190024       0.03761385       0.02405610       0.08535174
Ar       3.34481585      15.61611150       4.32721910       0.02238667      -0.06278407      -0.02836038
Ar      14.01536812       5.81858374       5.08268909       0.00975658      -0.02397784      -0.00972530
Ar       8.68876650       6.70462445       8.07602716       0.07905336       0.01275337      -0.01780353
Ar      10.45461609      14.05388526       8.81801173       0.04937493       0.04372520      -0.03440463
Ar      14.91962010       5.53961280       1.52520035       0.04487332       0.02755904      -0.03043184
Ar      16.08248335      10.23992092      10.17499903       0.01316036       0.02459852      -0.07529383
Ar       3.81173234       1.89369700       8.00997394       0.04263153       0.03797653      -0.00134967
Ar      12.14855814       3.09191445      16.97542398       0.00727158       0.07673967       0.01900241
Ar      10.33659543      11.94102310      12.09771815       0.01104012       0.02328367       0.06428024
Ar       3.68470749       0.90032808       1.20505286      -0.02233409      -0.03791738      -0.02169682
Ar       2.57835548       5.30018062       5.30759942       0.07086762      -0.05721050       0.08241383
Ar      11.13366483       8.67490233       6.00377189       0.06939977      -0.06651904       0.03979974
Ar      10.20046093      14.20655297       2.19469911      -0.00934591       0.03238618      -0.03042146
Ar       9.86816835       2.53417491       5.41648026      -0.02544010       0.09076124      -0.03102372
Ar       2.47399015       7.21776406      17.18429209       0.02678402      -0.01492914      -0.03604483
Ar      13.64236657       9.23000131       2.37541060      -0.01425596      -0.01465685       0.00021140
Ar      14.42825864      16.72389034      10.84929407      -0.06153352      -0.10312496       0.04873972
Ar       6.20228895       3.10910185       5.74831883      -0.08304323      -0.11891542       0.01196460
Ar       6.00839203       9.04920150       0.85172648       0.08053092      -0.01853976      -0.03699901
Ar       1.09993711       3.70240919       1.79002254       0.02633589       0.07733615      -0.08605971
Ar       7.07022280      15.97865462       0.02804276       0.04904010      -0.04492223      -0.00549403
Ar       6.32049676       2.34587780      16.14132895      -0.06106351       0.05188041       0.04435397
Ar      10.64015477       0.52076754       8.69298813      -0.02449520       0.02109556       0.08111671
Ar       3.94655191       4.76661569      15.19213780      -0.04106138      -0.01838352       0.05296349
Ar      13.68180040      16.00274852       2.93064922      -0.03392632      -0.02399880       0.00862679
Ar       8.49935104       4.24461139       1.57304174       0.00967456      -0.10286121      -0.07321728
Ar       7.63064799       3.17911378       8.86128154      -0.07645805       0.12571369      -0.02390954
Ar       5.69190790       9.55242053       7.24479646      -0.03031246       0.02959810      -0.02425724
Ar       7.16532297       9.05256701      10.98863484      -0.03140967      -0.02159152       0.00107679
Ar       2.56694263       0.20725514      11.61116486      -0.00946969       0.01648531      -0.00604380
Ar      14.86116786       5.46423814      13.47472863       0.01394560      -0.02423199       0.05747441
Ar       0.62758240       3.80524536      15.92177461       0.06486613       0.08118335       0.01514899
Ar       2.52944925       1.61239125       4.54705622       0.03418351      -0.01422352       0.02243463
Ar       1.79513587       4.79831860       9.34363692      -0.03358693      -0.01034323       0.07752488
Ar      11.07910845      16.10699474      12.29208923      -0.05453125       0.16696820       0.03277153
Ar       4.86943884       6.09092061       7.85058087       0.04329677      -0.06430094      -0.01636277
Ar      13.52205859       9.31965442      12.92194136       0.06916660       0.02440470       0.00526055
Ar      15.70588766       3.49905888      10.18342473      -0.02226807       0.08487758      -0.12153426
Ar       6.25908040       0.64035789       3.09837219      -0.00976627      -0.05308206       0.04578427
Ar       4.77257744       4.11249736       2.11537989      -0.01127754      -0.07603811       0.06720589
Ar       0.32538828       7.76063306      12.53129807      -0.05801557       0.02254456      -0.09739352
Ar       1.82467294      13.11333271      13.54673006       0.05112646       0.00142965      -0.00420075
Ar       0.25298285       0.62858218       8.82998820      -0.02560573       0.01765599       0.04628605
Ar       9.72604085      14.37453613      15.29356223      -0.04612940       0.06253027       0.05199070
Ar       1.77362751       8.15977447       7.63660541      -0.01430694       0.05488752      -0.02835734
Ar       9.22036011       4.57558629      15.07291874       0.03577794       0.04021136       0.05602398
Ar       9.22101535       5.44032737      11.45224049       0.02685794       0.02976203       0.01292663
Ar      14.45754702      13.44566816       0.03647478      -0.08243909      -0.15081990      -0.05959106
Ar       7.78390678      14.13520716      12.31187184       0.05294936      -0.08478168       0.02216743
Ar       0.76000465      11.72797836       7.17922203      -0.09120621      -0.00579199       0.07516502
Ar      13.80361107       0.37774136       7.38401924      -0.09325084      -0.10647766      -0.00230598
Ar       3.73918926      10.99452320      15.81340033       0.00459242      -0.02923282      -0.08582919
Ar       9.26646758      10.22743825       3.05289058      -0.14001296      -0.01693182       0.05564091
Ar      13.96409169       8.42040923      16.25599165      -0.09079529       0.05951646      -0.05222907
Ar       9.03742879      11.06468764       8.54595960      -0.01944743      -0.05788943      -0.02238889
Ar      12.25123654      16.54544212      16.76983210       0.08213940       0.03206754      -0.02479712
Ar       9.02463778      13.10439454       5.73748271       0.04809597      -0.00357145       0.00053244
Ar      10.10781181       0.87031108       1.99808591      -0.00132243      -0.12220042      -0.03025824
Ar      11.77166299       5.25436179       2.32168001      -0.00473677      -0.08758103       0.05472222
Ar       3.38066653       8.71106804       4.25041233      -0.04449721      -0.01713886      -0.01338448
Ar       0.17291057      15.47116582       6.22973656      -0.01285765      -0.10977921      -0.02327852
Ar       3.36819997      14.43394931       0.41971110      -0.00092082       0.10307016       0.00241000
Ar      13.52261298       6.82802454      10.00748074      -0.00965871      -0.02636008       0.00668606
Ar      16.33612577       0.91004815       3.83889791      -0.04649761       0.06126132       0.03618985
Ar       5.54681892      17.19090752      14.15566051      -0.07393454      -0.00322831       0.00698980
Ar       7.34272048      17.30792998       6.73310824       0.04944324      -0.03315191      -0.02889040
Ar      15.04161347       9.85162077       5.99115203       0.03899366      -0.03655925      -0.09409689
Ar       0.31421002      15.39411859       2.30309625       0.05149233       0.01336744       0.03308065
Ar      16.92793057       3.52143608       6.69823183      -0.00576242      -0.07319839      -0.03772481
Ar       5.99233887      10.79578926       4.29373886       0.03041820       0.02080810       0.02258523
Ar      12.24714980      10.03146784       9.16104096      -0.00026770      -0.00862184      -0.00328550
Ar      13.33693926       0.81010105      13.98675458       0.09271933       0.08119237      -0.00145996
Ar      15.61838845       1.55725110       0.30381838      -0.09398595       0.03311705       0.07661943
Ar       7.82972696       6.87057689       4.18215007      -0.05234534       0.00684993      -0.03072802
Ar      12.67178100      12.24003514       3.75799032       0.02717325      -0.03931315      -0.01662642
Ar      16.57401900      12.23260735       3.40816745       0.03489389       0.09519809       0.09075087
Ar       3.22356029      15.72437410       8.12528280       0.04125912       0.01368660      -0.08025129
Ar       9.14915046       1.85536729      11.61251697      -0.02089298      -0.02832734      -0.04883580
Ar       0.20673625      10.01024952       0.76427315       0.02952165       0.08931410      -0.01553068
Ar       4.20015385      14.47802356      11.54218892       0.00432934      -0.00625712      -0.00623750
Ar       2.97248069      12.07967698       3.01701834       0.06618579       0.02267443      -0.03631607
Ar      13.52479842      13.06272172      14.13353914       0.03971196       0.06178513      -0.01602633
Ar      15.96931945      15.73401226      14.18947968      -0.06231676       0.09413780      -0.03583222
Ar      13.46290311      13.14684132      10.54181483      -0.01852056      -0.05538429      -0.06936766
Ar       7.42087310      12.18807599       0.34934219      -0.00213262       0.03030993      -0.08212167
Ar       6.79088562       7.35010831      14.57606078      -0.02543237      -0.00885086       0.01101318
Ar       9.47429302       7.52424325       0.01088516       0.06929697      -0.04117821       0.01039377
Ar      16.37407945      10.40987734      14.69510027       0.02195901       0.06637010      -0.00427039
Ar       5.19307291      13.75631434      14.87327243       0.02713424       0.02198749      -0.00174246
Ar       0.00658762      14.89089081      10.81796639      -0.04865652      -0.02507927       0.06960290
Ar      12.09538060       3.88628654       8.20091551       0.01804372      -0.01126814      -0.03018870
Ar       4.24979440       7.01297093      11.28635842       0.02441338       0.07948350       0.03448859
Ar       6.75188507      14.34398280       3.36538997       0.04943536      -0.04600902       0.00089879
Ar      11.35330271      11.42169189      16.99887548       0.04305026      -0.09556348      -0.03324042
Ar       1.01245372      17.06144233      16.25223648      -0.00829266      -0.01920821       0.16910831
Ar      16.61823129       1.83786050      13.30574040      -0.03939302       0.04436304      -0.07012126
Ar      10.07281128       0.88362748      14.72460902       0.00132880      -0.05951830       0.04094004
Ar       2.11050234      11.03330701      10.54686989       0.04352660      -0.04481170       0.03528450
Ar       7.59115599      10.75101942      14.57083322      -0.09765245      -0.00583302       0.01743716
Ar       6.04719613      17.15511625      10.21482782      -0.06032629       0.03660875      -0.11083436
Ar       6.10507064      13.35761848       7.61889230       0.00250615       0.06826325       0.10798262
Ar      14.35625392      13.36952948       6.87936068      -0.02465305      -0.01672567       0.03962765
Ar      12.13170644       3.69500423      11.98946392      -0.06405343       0.04478426       0.01805019
