108
Lattice="17.35 0.0 0.0 0.0 17.35 0.0 0.0 0.0 17.35" Properties=species:S:1:pos:R:3:momenta:R:3 pbc="T T T"
Ar      10.00817291      15.09493488       3.75842421      -0.01500327       0.00767833      -0.06167413
Ar       8.12352248       9.66126683      11.14131981      -0.09095162      -0.06361694      -0.06101028
Ar      11.58268480       1.46763617       2.93632547       0.03595086      -0.05417805      -0.07520156
Ar       0.25614109       7.16897925       4.39508017       0.03178128       0.00388201       0.06590714
Ar       5.67399562       5.34494687       8.82701451       0.02592941      -0.08135978      -0.04218952
Ar       6.86616560      13.75036347       3.63976840       0.07832657       0.08023019      -0.08222734
Ar      12.31826000       3.30363471       6.17885642      -0.00788540      -0.03397886      -0.04477091
Ar      11.47733428       9.54856177       6.06605522      -0.02888514       0.03818553      -0.00615700
Ar       9.63344402      14.35660462      11.17529847      -0.02708001       0.00476599       0.08876087
Ar      13.34197622       2.14416573      17.13687635       0.02577691       0.03765930       0.08283687
Ar       2.93572915       9.03490572      11.61043895       0.01465114      -0.03970276      -0.04984943
Ar       3.06998184       1.75552616       9.44635561      -0.00779543       0.00036481       0.01726417
Ar       9.19595842       3.72746475       1.54245667      -0.05568593      -0.06115188      -0.09937047
Ar      10.22508373      13.31271580      15.04704993      -0.01210827       0.01611270       0.01106852
Ar       3.67538096      14.08016232      17.35704275       0.06159687      -0.06371498       0.14621668
Ar       2.61335633       4.98367057       5.97043593       0.04322762       0.04491896      -0.00516286
Ar      14.07477341       7.27649610       5.06305717      -0.04373279       0.02591748       0.05015417
Ar      11.24102666      13.00470430       0.79582242       0.09299306      -0.05397506       0.01977713
Ar      10.03862647       0.52748441       7.85304104       0.09897986       0.00366678       0.02116870
Ar       3.66877266       7.99213038      17.09696079       0.03768712      -0.02373347      -0.03995728
Ar      13.62853524       4.33293144       2.71891001       0.01692164      -0.01011854       0.05205596
Ar      15.75566763       2.20258050       9.40820127      -0.01024113       0.04473079      -0.01879978
Ar       6.45870480       5.95903809       5.37147104       0.02982082       0.17254321       0.09939510
Ar       6.47693400       5.27746186      16.12089151      -0.05602898       0.02762410      -0.02211631
Ar       2.02176564       3.20470050       2.04130890       0.02308776      -0.06386566      -0.00325333
Ar       6.05427202       0.19733641       1.02599537      -0.09580138      -0.01987796       0.05799308
Ar       5.54526493       3.69763361      11.83980789       0.08800574      -0.01490904       0.07670704
Ar      12.55145897      16.74749231      10.50480081       0.04719073       0.02784470      -0.04358771
Ar       3.29091271      10.64175894      14.92748164       0.11288851       0.02718487      -0.07310915
Ar      15.72155132      14.53112527       4.35956709       0.04509842       0.02695806       0.02539999
Ar       5.69104314       3.74095823       2.06028238      -0.03473587      -0.06436651      -0.01047722
Ar       9.10096520       3.96450397       7.47619322      -0.08602888       0.07558717       0.01911301
Ar       0.46330440       8.49848281       8.92660067      -0.03927015       0.04964319       0.01339804
Ar       6.07502384      14.00544547      10.60445426       0.03016888       0.03150348      -0.02293821
Ar       2.05722061      17.15482753      16.11765348      -0.03530719      -0.03580423       0.17344037
Ar      15.76250973       5.86665601      15.15619210      -0.04683737       0.01623392      -0.04550743
Ar       2.10785113       6.17858545      14.14962211       0.04532915      -0.01490405       0.08450356
Ar       3.22395212       1.38060044       4.24687486      -0.02728115      -0.03643451      -0.05677192
Ar       0.87808890       2.36776247      13.17806979      -0.07219879      -0.02063865      -0.05307023
Ar      15.27742438      15.28932118       8.55592746       0.07133962      -0.04285089      -0.02328788
Ar       3.78325167       8.48447651       8.06603418      -0.04514930       0.01844542       0.01365843
Ar      12.92826635       6.75800121      12.21255015      -0.07994384      -0.03515014      -0.06661326
Ar      16.83508543       6.55601526      11.83829508      -0.16544508      -0.00535896       0.02642562
Ar       4.04147543       6.72424661       2.85027645      -0.02206464       0.00245092      -0.07312385
Ar       3.95424430       2.62045149      15.83754755      -0.01173182       0.06785607       0.02466023
Ar      16.71036101       9.24692287      14.73912383      -0.07447690      -0.00392424      -0.00199149
Ar       3.70888498      14.27985103      13.46626347      -0.10414558      -0.04182668       0.06987789
Ar       0.74394511       0.18966175       6.78934118      -0.04438341       0.06369756      -0.04219587
Ar      11.64360433      16.91401738      14.08962226      -0.04366177       0.00239024      -0.00110407
Ar       2.22706126       5.08741525      10.01317626      -0.10357465      -0.11095376       0.04862875
Ar       8.99134583       7.65084181      14.49354265       0.07145740       0.01246896       0.00262412
Ar       8.47396960       7.78557858       7.93584157       0.01898537      -0.06065074      -0.07130727
Ar      13.23093724      15.73371407       1.92457157       0.04216209       0.01484121      -0.05926527
Ar       6.55203466       0.41872013      10.18655994       0.00000473       0.00989577      -0.07907308
Ar       1.04120332      13.68974653       6.85484370       0.03563292       0.06140536      -0.04743665
Ar      12.25954274      14.09791754       6.47778158      -0.05018903       0.02154849       0.04205841
Ar       1.66979413      11.11595957       0.97361013      -0.02144003      -0.03383047       0.02568789
Ar      12.41372578       7.83382557       1.75642968       0.02753352      -0.04617144       0.01457977
Ar      11.50225964       5.45302478      16.71658451      -0.00426379       0.00532833       0.08888901
Ar       7.40936187      11.64952254       8.21485566      -0.01884954       0.02062567       0.03589518
Ar       0.87372218      16.07853900       2.23415181      -0.01877226       0.00284346      -0.00813997
Ar      12.58054074      12.78389612      10.13255014       0.03749456      -0.05504485       0.01365655
Ar       9.70749227      17.17149012       0.20393453      -0.04855750       0.02278737      -0.04411243
Ar      10.17921224       5.84536467       4.58237668      -0.03095199       0.03923461      -0.10481745
Ar      16.77330531      10.51306789       4.53065875      -0.05355718      -0.08669601      -0.06549339
Ar       3.16485359      13.34473771       3.59411389      -0.07172018      -0.07974139      -0.01109846
Ar       5.40691000      11.28784919       1.34752427      -0.01261242      -0.04330363       0.05337394
Ar      11.50859082       8.22638153       9.48875901      -0.00179657       0.09417211       0.00429101
Ar      15.61989766       1.27310139       3.05100466      -0.04726494       0.01128261       0.05777006
Ar       3.88539694       0.34553427      12.65333684      -0.05401053       0.06727956      -0.01892801
Ar       5.45554656       2.43074784       6.96044220       0.06123943      -0.04709490      -0.01555926
Ar      14.48220834       6.06933767       9.01070888      -0.02338934      -0.02416780      -0.04513491
Ar      15.48250943       9.63746417       1.23847527       0.01728092       0.00397968      -0.02588447
Ar      16.13942498       4.23579572       6.22055458       0.08649570       0.05111767       0.06311666
Ar       7.09894707       9.72025457       5.28427581      -0.02417577      -0.12560629       0.00346884
Ar      14.94929763       9.60434720      10.86855278      -0.02233632      -0.04076042      -0.02008643
Ar      11.40952735       3.15472250      13.85959983       0.09089639      -0.05772545       0.06239513
Ar      15.53584847      16.63803469      16.08727084      -0.05724236      -0.02955390       0.07357235
Ar       3.19813105       9.84131883       4.40504300       0.06142501      -0.07178301       0.01707120
Ar      15.39531327      13.07202520       0.79810250      -0.00841655       0.05607579      -0.00074027
Ar      12.75932811      11.32660200       3.65898305       0.03964583       0.04478276       0.01420378
Ar       4.03309434      16.13988993       6.95096598       0.01214461      -0.05507612       0.00883271
Ar       7.47751396       2.12882946      15.34242468      -0.01386126       0.02490701       0.07208943
Ar       0.65514165       6.40556723       0.76139435      -0.05361218       0.07881688       0.04657584
Ar       1.42156799      15.87467982      10.73633714       0.05500080      -0.08485296      -0.01599660
Ar       4.60265653      12.32050312       6.53663075      -0.01253934       0.00033818      -0.05200581
Ar      13.74515791      13.01655190      14.42597980       0.00806509      -0.02796249       0.01101270
Ar      15.55299746      17.16127794      12.48839684      -0.07082494      -0.00692023       0.01213801
Ar      11.54095286      10.42266446      12.40301985      -0.07634754      -0.03436339      -0.00713399
Ar       9.78085575       9.91568110       0.27435734       0.08092081       0.00038388       0.00188508
Ar       8.77434518       5.77090883      10.99574630       0.05509126       0.10819977       0.03406945
Ar       7.38609399       7.69874478       2.20820014       0.12758623       0.13478834       0.07724500
Ar       0.15039876      13.20997846      14.98216577       0.01187641       0.09265720       0.02556921
Ar       7.30745146      15.74991615      14.20638755       0.03278254      -0.00363394      -0.05975310
Ar      15.80786727      13.25686412      11.44729764      -0.03493847       0.11039182      -0.06990679
Ar      13.57437917       0.09695237       5.98961452      -0.05663755      -0.05269294       0.02739901
Ar       5.77611910       7.39346824      12.58127539       0.11672082      -0.00118158       0.04997233
Ar       7.87683855       1.77650588       4.34311825       0.01013423       0.02047986      -0.05527685
Ar      12.93118789       8.93617633      15.58976003       0.08656170      -0.06403657      -0.09547528
Ar      16.91606675       2.29649708      16.99550618       0.00080208      -0.03328216      -0.04830956
Ar      14.60962166       3.42132785      12.43488645       0.00043168       0.02405018      -0.02952148
Ar       7.81713649      13.82798192       0.19452478      -0.10483567      -0.01978934       0.01031244
Ar       1.73260869      11.85099127      10.11637634       0.03001586      -0.08686575      -0.00758203
Ar       6.73119396      11.65129983      13.63284259       0.09963146       0.06725529       0.04126234
Ar       9.15767926       1.75595815      11.57046966       0.06151067       0.05131726       0.02798350
Ar       8.67166698      14.75306074       6.89485459      -0.03288671       0.03397058      -0.02034154
Ar      14.88607656      11.53676254       7.18729713       0.03439334      -0.00237385      -0.09144215
Ar      11.90058326       3.38360033       9.59143333       0.04279027       0.06625581      -0.01207125
