108
Lattice="17.35 0.0 0.0 0.0 17.35 0.0 0.0 0.0 17.35" Properties=species:S:1:pos:R:3:momenta:R:3 pbc="T T T"
Ar       5.92220126       1.07933385       7.80947979      -0.00323215      -0.03280055       0.03126726
Ar      10.49190962       6.85781380       9.04038086       0.01201535       0.02474252       0.02072440
Ar      11.50505704       3.26714838       5.57908008      -0.00947151      -0.03217509       0.02748740
Ar       0.08227293       8.33419133       5.89293883       0.01702591       0.01435255       0.03608172
Ar       7.28058456       4.70821985      10.49447505      -0.03226130      -0.07841987       0.03831397
Ar       4.10592920      16.45362583       4.43328667       0.07175804       0.05302188      -0.12779992
Ar      15.04919443       5.21027765       5.16445608       0.02543094       0.01074063       0.03627187
Ar      14.02511059       4.77587146       8.34038753      -0.04526817       0.04002015      -0.07293106
Ar      11.80530567      16.79674253       4.18582909       0.01705662      -0.06822596      -0.05291789
Ar      16.19955993       4.87573566       1.82423691       0.01886885      -0.05882727      -0.02079343
Ar      14.38180656       9.18450237       8.35646188      -0.02947538      -0.08200997       0.06998766
Ar       4.23264972       4.60067877       8.19105537      -0.00858699      -0.08964309      -0.02429763
Ar      12.96155948       3.22277163       2.03902847       0.03866986      -0.01340263      -0.02172296
Ar       8.18743005       4.53489122       6.89795301       0.02248215      -0.07654643       0.00075117
Ar       9.14916214       2.90022848       3.14427069       0.03792511       0.02238641       0.02648659
Ar       1.30519034       4.95395405       4.12545181      -0.00647215       0.01772433       0.03836709
Ar       6.24768848      14.89913727       7.25565558       0.00602169       0.02351876      -0.09574136
Ar      11.43212608      16.06451270       0.86312092       0.02557108       0.01623008       0.03467041
Ar       5.92220811       7.59670277       7.90129108       0.07629508      -0.01579236       0.04888840
Ar       0.65640170       8.34995110       1.96512675       0.21611464       0.06179454      -0.04096157
Ar      14.63766148       9.45676045       3.27000674      -0.04082145       0.05991384      -0.05279866
Ar      13.14790532      15.40375604      10.70272713       0.03263656       0.00146715       0.01272685
Ar       5.78528931       3.66538123       3.93803105       0.01523684       0.04432045      -0.11047358
Ar       3.61457684       7.49405545       5.40200607      -0.00540830      -0.06578228      -0.04712793
Ar      15.46354360       0.92260466       1.49644524      -0.01673769       0.01107805       0.03784906
Ar       6.90820618       3.42321739       0.31872538       0.01895444       0.06912954       0.04753089
Ar       3.43443415       3.09631351      15.67222886       0.01526187      -0.02663620      -0.00545802
Ar      11.03812943      16.32093697      14.21380994       0.01015984      -0.01134027      -0.06770038
Ar      17.11625527       3.74227191      16.03352600      -0.11355583       0.15446137      -0.05428423
Ar      15.08939698       1.48792876       5.02912426       0.03715066       0.02776507       0.09801866
Ar      10.23872666       5.20124563      17.13900371      -0.02354980      -0.01584632       0.01425267
Ar      10.49217047       3.00124731       8.78350195      -0.06640132       0.05958539      -0.10081026
Ar       8.22185471       9.27889500      10.28957662      -0.05503403       0.00331714       0.00364579
Ar       7.84142789       3.43326400      13.99440046       0.12650281      -0.03891166      -0.01501885
Ar       2.11620797      16.56064552      13.15170451      -0.02625123       0.03611382      -0.04945523
Ar       1.42083429       9.26466578      11.69012040      -0.07263379       0.01357491      -0.01665582
Ar       2.11388328       6.71740028      15.72395361       0.04781236       0.00111974       0.07915441
Ar       1.80146615       1.43534250       1.64724049      -0.02181800       0.06324004       0.05443703
Ar       4.17882558       5.76009577      12.10868257       0.01508101       0.07879274       0.11797504
Ar       8.14886856       1.09735093      10.58135910      -0.00943383       0.06824689      -0.02127155
Ar       1.48975662       6.82038249       9.02000368      -0.07048846       0.07468866      -0.01903158
Ar      12.36528551       6.10322122      12.20260182      -0.04674981      -0.07945581      -0.02746971
Ar      14.87317871       3.58865652      12.98164331       0.00285940       0.06737947      -0.00494764
Ar       8.09438974       6.70424591       1.98959051       0.03778902      -0.01387818       0.02411572
Ar       4.00097874       6.09024465       1.75777475      -0.05005457      -0.04428622      -0.05190256
Ar      15.92380584       6.38125247      10.77878037       0.05522301      -0.07402497      -0.01490455
Ar       4.08076809      10.27122004      14.60006981      -0.03820702       0.02256849      -0.05983728
Ar       1.41011430       3.35690653      12.61294815       0.03841407      -0.02155806      -0.04444760
Ar      11.70595684       7.93971644      15.03876688      -0.03998492      -0.02638916      -0.02422402
Ar      17.32337084       3.55838760       9.04493224       0.00156755      -0.00055944       0.01129367
Ar      13.72386573       4.63865628      16.58366091       0.05721668       0.01168433      -0.05135107
Ar      11.46442470       2.50420581      13.49521673       0.02468159      -0.05423315       0.05832126
Ar      14.54885277      14.71498759       3.11018730      -0.10867293      -0.03093512       0.08178779
Ar       5.25306944      15.85228583      10.39389389      -0.07507744       0.03001847      -0.06487465
Ar       0.71769919      11.48901786       3.32069024      -0.02598197       0.01511163       0.00285592
Ar      17.14821056      13.38066186       6.16038723       0.04060568      -0.01973171       0.09305790
Ar       4.96111861       9.83370968       0.87738398      -0.01906223       0.04512292       0.03502903
Ar       7.52753242      10.49804267       3.52277987      -0.02789041      -0.03375980      -0.05030718
Ar      12.63340424      11.61728277       1.32995837       0.03829515       0.02136517       0.03050213
Ar       9.24216866       8.97803682       6.58240257      -0.02799792       0.08105665      -0.02879345
Ar       0.32210151      15.90641198      16.74080221      -0.03862345      -0.00975139       0.01462882
Ar       6.67936124      14.07721210       3.50604160      -0.02406886       0.02159492       0.00910788
Ar      10.30992637       1.77234860      16.58217380       0.06728294       0.00306973      -0.00993989
Ar      14.54336943       8.31575156      17.08084203      -0.08087302      -0.04778038       0.03691361
Ar       5.82569168      11.11546904       6.90746600      -0.03363087      -0.02354695       0.03297363
Ar      13.91125245      14.97763640       7.25251811      -0.03312527      -0.03684663       0.06809428
Ar       1.62855989      13.12057545      15.17613204      -0.01799308      -0.02772819       0.01439823
Ar      12.88529150      12.17873820       5.58947803      -0.06418103       0.05319389      -0.09731607
Ar       0.36932550      15.75466434       3.16936580      -0.05422222       0.05763702      -0.03960823
Ar       9.65270979      12.79808372      16.71110837      -0.03067728       0.03670026       0.08275827
Ar       7.71203324      17.12551808       4.41341781      -0.00287494       0.02207467       0.02235464
Ar       9.76900711      16.37251988       7.86004863       0.02798064      -0.04365822       0.08635650
Ar      15.90176259      12.04097992      17.13685804       0.07330973      -0.05606211       0.03295642
Ar      16.89419878      15.78330019       9.44785346      -0.09031265      -0.03322583      -0.01502300
Ar       3.04551785      13.02139314       5.24056886       0.00987847       0.02476685       0.02417569
Ar       9.30190815      12.76951048       6.66459858       0.01725718       0.00455078       0.03629293
Ar      12.86319823      11.40618554      15.18029330      -0.10171974       0.11453324       0.11419248
Ar      14.51616759       0.73672644      15.40727381       0.00104444      -0.07765222       0.01389532
Ar      11.67424135       7.39168743       4.41139992       0.07723613       0.05759749       0.08700046
Ar      10.25984677      13.56054397       3.42263530      -0.00134044      -0.00024498      -0.05678867
Ar       2.93202200      13.85668211       1.28947410       0.03732095      -0.04949695       0.06386049
Ar       1.83717882       1.84667674       5.91612907      -0.01014500      -0.04086492       0.07089579
Ar       7.53340417      16.16328813      13.91316959      -0.07251034       0.06056770       0.01095617
Ar       0.37363695       9.71101542      15.29315108      -0.01964710      -0.07671672      -0.01793426
Ar       2.18836899      13.38314633      10.66973042       0.02041025       0.02389568      -0.04972450
Ar       2.85738200      10.05196902       8.32332393      -0.02803266       0.07972063       0.05564029
Ar      11.39435688       9.58423881      11.74924342      -0.07054402       0.01305856      -0.00928487
Ar      16.96822507      11.01322503       8.91812916      -0.00778068      -0.05300699       0.02294579
Ar      13.70582771      12.02261840      10.08326772      -0.00008621       0.04941047       0.07691224
Ar       5.57502492      13.33964314      12.99594927       0.00440243      -0.03701702      -0.03261799
Ar       5.97427638       7.01308228      15.61942680       0.06554153      -0.09381937      -0.03426076
Ar       8.76122356       9.25712416      17.01553092      -0.04074073       0.04318354       0.03328097
Ar      14.87715734       9.51040141      12.27200365       0.02925505       0.02310161      -0.01178011
Ar      15.98639321      13.25580040      13.71955969      -0.00560279       0.04792527       0.03090670
Ar       2.71425749      15.54419350       7.92149121       0.06656666       0.03143811      -0.08054596
Ar      14.46912283       1.53387929       9.85200704       0.05026791      -0.04262406      -0.02051205
Ar       8.61813806       7.15425112      13.07206914      -0.13565716       0.00620427       0.01334656
Ar       5.94969640      13.16409807      16.76613712      -0.00370116       0.00425371       0.00882267
Ar      14.00757784      14.89229469      16.50634110       0.07785124       0.00303037      -0.07865070
Ar       4.08307610      16.84813159      16.37699870      -0.01636593      -0.04263661      -0.05366016
Ar      15.96095342      17.20438210      12.51037161       0.07005137       0.00419870       0.03103137
Ar       7.99542549      16.28577033       0.01314552      -0.01555335      -0.05963035       0.02969361
Ar       5.06230797      10.37774053      10.76678845       0.05012584      -0.05584705       0.01763039
Ar       8.18356983      10.55739022      13.97483968       0.01273602      -0.11606331      -0.03482669
Ar       4.81104742       1.86995793      11.31168116       0.05286933      -0.02854170      -0.00804619
Ar       8.22895901      13.33348999      10.11727787       0.02111136      -0.01387674      -0.07218826
Ar      10.64293845      13.23734135      12.64387437      -0.01720959       0.00675848      -0.13113230
Ar      16.05846663       6.83084054      14.15071952       0.10061682       0.03369053      -0.05972171
