108
Lattice="17.35 0.0 0.0 0.0 17.35 0.0 0.0 0.0 17.35" Properties=species:S:1:pos:R:3:momenta:R:3 pbc="T T T"
Ar      10.38885437      16.17152439       5.00403902       0.09581021       0.04646264       0.00515845
Ar      10.35804635       8.56414979      13.99343191       0.02883742       0.01808809      -0.06703357
Ar      13.30954841       2.40181859       3.76124631       0.02004309       0.00768410       0.02690101
Ar      17.23235853       7.50373773       4.04045695       0.01230247      -0.06415700      -0.02761163
Ar       5.24163690       2.95265279      12.48804263       0.05370530       0.04433022       0.04599933
Ar       3.44230699      15.43043922       4.25583867       0.05430005      -0.07563731      -0.02555193
Ar      14.05093494       5.77372430       5.10038792       0.01947520      -0.01114143       0.02206210
Ar       8.87663072       6.75257022       8.01846247       0.06964445       0.02538805      -0.02642132
Ar      10.59624383      14.25053812       8.75871255       0.05372294       0.09575018      -0.01765939
Ar      15.14428396       5.61101696       1.40520841       0.10899570       0.02758496      -0.05809902
Ar      16.05944639      10.29501924       9.97666221      -0.02865916       0.01839545      -0.07891895
Ar       3.86493827       2.00305545       8.06643418      -0.01227210       0.04849596       0.05253183
Ar      12.17969659       3.24268908      16.97752309       0.01668319       0.04377696      -0.01701514
Ar      10.45874234      11.91000605      12.25982930       0.08588928      -0.04672326       0.06406022
Ar       3.52417384       0.78809770       1.05323569      -0.06279772      -0.03526076      -0.06351513
Ar       2.72199182       5.12525455       5.46938553       0.03850644      -0.07898952       0.04406045
Ar      11.31219698       8.50905240       6.06259839       0.07462594      -0.06454563       0.00439609
Ar      10.17733290      14.26188356       2.02210801      -0.00500145       0.00931493      -0.10067525
Ar       9.79976541       2.76412498       5.33647601      -0.02955959       0.09065511      -0.03407000
Ar       2.51901926       7.22674339      17.14226729       0.00695657       0.02702181       0.00524468
Ar      13.62563493       9.13115947       2.37691749       0.00016330      -0.06427948      -0.00024002
Ar      14.24169195      16.51501177      10.94503015      -0.08405704      -0.06349120       0.02234940
Ar       5.98577111       2.91499502       5.65802679      -0.07788970      -0.03247406      -0.08026911
Ar       6.19082268       8.95844553       0.76969113       0.06630101      -0.04864322      -0.02937531
Ar       1.17800838       3.89024984       1.78948785       0.03277724       0.07134879       0.06941203
Ar       7.18197345      15.89794172       0.02538690       0.03256607      -0.00982040       0.00887902
Ar       6.24068174       2.50775216      16.33593048      -0.00455659       0.05695625       0.09818131
Ar      10.53409987       0.54847539       8.86722504      -0.04922190      -0.00005598       0.04289124
Ar       3.90174196       4.73753452      15.27590848       0.01463831      -0.00148848       0.00913444
Ar      13.58526829      15.92590777       2.95098781      -0.03894536      -0.03490308       0.00901557
Ar       8.48442819       3.96313796       1.38450838      -0.01873678      -0.11893943      -0.07238964
Ar       7.43803867       3.50039318       8.81713513      -0.07321178       0.12336508      -0.00820721
Ar       5.59827323       9.55802992       7.36488316      -0.04447159      -0.01585598       0.09385142
Ar       7.13164638       9.01433062      11.00097731       0.00880657      -0.00682638       0.00973186
Ar       2.52715499       0.28477588      11.61332647      -0.01866542       0.04126960       0.00760147
Ar      14.90849764       5.41168626      13.63475023       0.02237477      -0.01820189       0.06883254
Ar       0.69443399       4.00991649      15.78343203      -0.02490975       0.07583556      -0.10810185
Ar       2.60749451       1.61414516       4.61841946       0.02793912       0.00563970       0.02926383
Ar       1.71726676       4.77099344       9.54499532      -0.02526453      -0.00935817       0.08015839
Ar      10.96428000      16.38476936      12.26136483      -0.03311944       0.05352282      -0.04753085
Ar       5.03528890       5.92151400       7.83840689       0.08621562      -0.06319490       0.01313290
Ar      13.68085485       9.40005043      12.82830099       0.05839872       0.03969363      -0.07926349
Ar      15.60864273       3.71694840       9.89685090      -0.05591890       0.08676805      -0.10339360
Ar       6.36296046       0.49106345       3.27587889       0.06748709      -0.06785784       0.06839776
Ar       4.76555591       3.96377720       2.29888117       0.00645407      -0.04596339       0.07751323
Ar       0.19337551       7.80705800      12.27621857      -0.04846371       0.01498499      -0.10458743
Ar       1.86011002      13.10552045      13.59986500      -0.01669886      -0.00496225       0.04387552
Ar       0.18060026       0.67019931       8.93854159      -0.03269992       0.01122193       0.03848307
Ar       9.63349853      14.50047603      15.43616062      -0.01890970       0.03448658       0.05436952
Ar       1.73361057       8.29436014       7.57908845      -0.01608861       0.04814223      -0.01646981
Ar       9.31384040       4.65807543      15.19675547       0.03706154       0.02442614       0.03734773
Ar       9.21351214       5.58811795      11.48503167      -0.03395618       0.08521020       0.01359230
Ar      14.30267408      13.08548811      17.35494840      -0.03758815      -0.13511682       0.03426307
Ar       7.82244487      14.01120033      12.32948688      -0.01946865      -0.01433579      -0.00980220
Ar       0.53234661      11.73839410       7.34445171      -0.08687973       0.01583055       0.05507214
Ar      13.64562357       0.11130722       7.32377134      -0.03705503      -0.10749121      -0.04304732
Ar       3.70411860      10.79164601      15.66072861      -0.02294385      -0.11449602      -0.04200071
Ar       9.01622423      10.18184440       3.14712366      -0.02968074      -0.02628055       0.00835405
Ar      13.71722154       8.52084421      16.18117998      -0.10002874       0.02120575      -0.01008426
Ar       8.90721660      10.84350328       8.50174173      -0.06960580      -0.10101115      -0.01382808
Ar      12.49883146      16.55523742      16.80376957       0.11373160      -0.01873050       0.03841810
Ar       9.15024116      12.98765887       5.69185707       0.05166603      -0.07978326      -0.03047671
Ar      10.09662857       0.57225893       1.90637379      -0.00723682      -0.10994324      -0.04415925
Ar      11.63156627       5.13001834       2.50887306      -0.08686948      -0.00925913       0.08904373
Ar       3.24198063       8.62015265       4.20774387      -0.05100924      -0.04371970      -0.02130089
Ar       0.11166834      15.19564839       6.15177410      -0.03257471      -0.10431770      -0.03599187
Ar       3.38264770      14.70416632       0.42937978       0.02020071       0.09913330       0.00200790
Ar      13.51408310       6.74046420      10.03950926       0.00113358      -0.03995377       0.01889502
Ar      16.30464285       1.05439609       3.96744476       0.03489257       0.03793788       0.06112352
Ar       5.34891620      17.12373773      14.10805754      -0.07951542      -0.02580285      -0.03422819
Ar       7.44888359      17.17804801       6.68744586       0.03683564      -0.06731833      -0.00779630
Ar      15.10901494       9.75936243       5.77728100       0.01346033      -0.03480032      -0.07379604
Ar       0.43340241      15.45078138       2.35750096       0.03822311       0.03406867       0.01701079
Ar      16.90696666       3.34882509       6.56498657      -0.00772579      -0.05969331      -0.06521264
Ar       6.10736460      10.96252125       4.22547631       0.01789953       0.09326420      -0.03933504
Ar      12.29617410      10.01112623       9.16996979       0.03226779      -0.01153082       0.00797996
Ar      13.56090477       1.09063063      13.97529189       0.04366546       0.13761216       0.00448976
Ar      15.35497086       1.64253758       0.48643177      -0.10916223       0.03486822       0.06743465
Ar       7.68953181       6.88481234       4.11189749      -0.05967495       0.00150982      -0.02579160
Ar      12.72839345      12.18596421       3.74930586       0.01528795      -0.00197720       0.00784720
Ar      16.62895458      12.44069788       3.67189645       0.01033792       0.06785797       0.11676086
Ar       3.31881434      15.74396487       7.93857264       0.02809953       0.00654104      -0.06959153
Ar       9.01974211       1.78798547      11.53990554      -0.09127402      -0.00831620       0.00434301
Ar       0.28501544      10.22600186       0.74172968       0.03298633       0.08401322      -0.00015086
Ar       4.25215179      14.43596731      11.44997406       0.03379220      -0.02354491      -0.06454541
Ar       3.09556458      12.13705646       2.92069575       0.03056404       0.01910149      -0.04330196
Ar      13.56487704      13.19413310      14.01127719      -0.00714339       0.04347396      -0.08085538
Ar      15.83194960      15.91009041      14.10956618      -0.03316498       0.04544440      -0.01758769
Ar      13.46527202      13.02081353      10.39113081       0.02190629      -0.04322892      -0.04291492
Ar       7.43055692      12.33182627       0.21401292       0.00876119       0.07557761      -0.02069657
Ar       6.70124348       7.28158162      14.60097917      -0.04263911      -0.04354187       0.00893350
Ar       9.64621097       7.43602174       0.09282440       0.06961525      -0.02609091       0.05006545
Ar      16.47789739      10.63065358      14.67366307       0.05531387       0.10377676      -0.01170291
Ar       5.35052879      13.85632157      14.86158243       0.08072986       0.03130436       0.00306909
Ar      17.29247917      14.77556755      10.96656658      -0.00439941      -0.06369058       0.04652446
Ar      12.14057916       3.86169133       8.11874030       0.01769795      -0.00923018      -0.03519554
Ar       4.26425564       7.18507132      11.39390982      -0.01846543       0.05374401       0.04884217
Ar       6.82974393      14.24648797       3.35562624       0.01451329      -0.02687541      -0.00958045
Ar      11.42826864      11.16506963      16.91681698       0.00786775      -0.10761575      -0.03289968
Ar       1.00289681      17.02941401      16.65173827      -0.02873558      -0.00837649       0.12566676
Ar      16.60204816       1.97021071      13.09286264       0.04335076       0.06752066      -0.10498065
Ar       9.92536346       0.83203723      14.96257575      -0.10269505       0.01752759       0.14053537
Ar       2.26848737      10.91705382      10.63705648       0.07719162      -0.04900029       0.03570856
Ar       7.34788345      10.76891373      14.54355963      -0.09229534       0.01149302      -0.04315394
Ar       5.94408106      17.26772960       9.95320731      -0.02041809       0.04909435      -0.08978223
Ar       6.09919593      13.53314106       7.90298019       0.00236709       0.06774708       0.11562851
Ar      14.29608139      13.33918448       6.97621550      -0.02328827      -0.00917359       0.03239451
Ar      12.05441496       3.76654528      12.04234038       0.00057278       0.01154972       0.02334965
