108
Lattice="17.35 0.0 0.0 0.0 17.35 0.0 0.0 0.0 17.35" Properties=species:S:1:pos:R:3:momenta:R:3 pbc="T T T"
Ar      10.79216186      16.63542151       5.17967899      -0.03274418       0.02861948      -0.00264919
Ar      10.43229565       8.11019363      13.80234627       0.01069356      -0.06581246       0.03857078
Ar      12.82010317       2.15911339       4.23568294      -0.06767261      -0.03672764       0.06659463
Ar      17.22510423       6.96385990       3.88028730      -0.00958656       0.04383808       0.02781209
Ar       5.10373718       3.86391075      12.26474180      -0.09180397       0.12223013      -0.08163134
Ar       4.05087828      15.19649278       4.15192467       0.07583412      -0.02797741      -0.01930609
Ar      14.38048741       5.59604073       5.48035855       0.01835826      -0.04261527       0.03240517
Ar       9.23742086       6.78886850       7.83649462       0.01982766      -0.05007208      -0.01356744
Ar      10.97379041      14.56444373       8.49773891       0.02749943      -0.01076459      -0.02795152
Ar      15.70819474       5.74836179       0.46613320      -0.00229781       0.00820129      -0.10671854
Ar      15.82396698       9.95253210       9.14400881      -0.00514633      -0.06208981      -0.12887285
Ar       3.24475326       2.53157381       8.51906385      -0.03315611       0.01406479      -0.01014311
Ar      12.04530304       3.93164537      17.17125228      -0.03151939       0.11431151       0.09060825
Ar      10.76753410      11.61269708      12.37271117      -0.05046996       0.01371089      -0.03590009
Ar       3.42279528       1.02862080       1.35419213      -0.07912383      -0.03293272       0.05229427
Ar       2.75368514       5.00662027       5.63055552       0.05008111       0.05340110      -0.00101611
Ar      11.87201063       8.24836595       5.52340307      -0.03251671       0.06542568      -0.01018912
Ar      10.77935438      13.76771830       1.41590501       0.09970531      -0.06005100      -0.01155219
Ar       9.31260042       3.21831239       5.24346305      -0.01869295      -0.02092268       0.04456516
Ar       2.23356241       7.45936220       0.57945110      -0.05929014      -0.03037939       0.13442081
Ar      13.53064533       8.22651518       2.37425968      -0.00759247      -0.07859234      -0.02280822
Ar      14.00233085      16.62481371      10.62592663      -0.00824900       0.06494457      -0.05362340
Ar       6.04351847       3.11394868       6.08470957      -0.04273773       0.01962274       0.11482584
Ar       6.66482451       8.52242474       0.56811539       0.03097048      -0.03902419      -0.00990759
Ar       1.36574717       4.05226119       2.48585631       0.01891030      -0.09902773      -0.00550247
Ar       6.81478155      16.37866432       0.05456051      -0.02759953      -0.02823384      -0.02764246
Ar       5.86303053       2.31153759      16.28658987      -0.08606040       0.07870921      -0.05520061
Ar      10.15908856       1.07726538       8.66922542       0.00350384       0.01275525      -0.01667865
Ar       3.70058976       5.03130596      15.37659849      -0.04751850       0.05211340       0.06070122
Ar      13.91849634      15.59251314       3.13110582       0.09656752      -0.02502467       0.02286813
Ar       8.89159715       3.37473100       1.71872980       0.02114692       0.00675438       0.03261567
Ar       7.84070023       3.36422321       9.06717690       0.02962097       0.01749523       0.02610565
Ar       4.86812157       9.88834228       8.32742634      -0.04802093       0.12536687       0.05911901
Ar       7.17092842       9.05677020      11.08584190      -0.04465123       0.01008584      -0.09842123
Ar       2.63758273       0.47038653      11.37870132       0.02572656      -0.02624150      -0.08387132
Ar      14.34475024       5.52103286      13.82331370      -0.10800762      -0.02365847      -0.08513876
Ar       0.43806103       4.42135049      15.42557735      -0.00276452      -0.01255580       0.01206240
Ar       2.86550100       1.05773204       4.83688935       0.02896500      -0.02974761       0.05729952
Ar       1.50019308       5.10819476      10.32555852       0.01704839       0.08117755       0.01104006
Ar      10.44321179      16.28174704      12.26479861       0.02122267       0.00652101      -0.00783658
Ar       5.01566872       6.21103706       7.97744535      -0.00540501      -0.01082376       0.04500913
Ar      13.91930968       9.73337130      12.58990714      -0.01519075       0.01590067       0.06737779
Ar      15.21253109       3.89392223       9.35995672      -0.06774824       0.00486552      -0.01935517
Ar       6.90774475       0.82776958       3.34261390       0.02518658       0.14161644       0.02293997
Ar       5.10112149       4.47644273       2.15285126       0.06120168       0.11600316      -0.05899671
Ar      17.19954012       7.67597885      11.48474078      -0.05004476      -0.00344263      -0.00868961
Ar       2.24637478      13.65768768      14.24836896       0.06486690       0.09664263       0.07280899
Ar      16.99877005       0.53392182       8.96852917      -0.05169828      -0.01829428      -0.02122458
Ar      10.08899494      14.40531289      15.10662936       0.03015144      -0.03653863      -0.04669338
Ar       1.51332649       8.39545594       7.61364380      -0.03711356      -0.02602935       0.00905044
Ar       9.35786484       4.81707214      14.87838294      -0.01429551      -0.00310574      -0.04694634
Ar       8.69327968       5.82283151      11.59919318      -0.05682781      -0.11142981      -0.04090879
Ar      14.35840274      12.02201636       0.69748006      -0.01950716      -0.08023029       0.04015600
Ar       7.86542518      14.06803545      11.77085180      -0.01476077      -0.03175337      -0.03275012
Ar       0.62246528      12.18787488       7.37505280       0.08430627       0.06917225      -0.02163266
Ar      14.14319033      16.69044504       6.99634685       0.09745754       0.00833684       0.00490218
Ar       3.58920378       9.83027626      15.23550419       0.00588569      -0.05022632      -0.07232011
Ar      10.02788764       9.84064309       2.77088615       0.09704497       0.00233802       0.00651404
Ar      13.42503281       7.92640758      15.89117071      -0.02498926      -0.00802896       0.01794795
Ar       8.71397989      10.40007486       8.07226788      -0.02841462       0.01122526      -0.05475722
Ar      13.45816825      16.02901199      16.73608023       0.06778058      -0.06465326      -0.03251197
Ar       9.72767752      12.40308975       5.37116636       0.02581706      -0.00575482      -0.00468404
Ar      10.43420806       0.07148977       1.83297667       0.10876397      -0.06067883       0.05722447
Ar      11.07003970       5.87129393       3.53193427      -0.00234518       0.05732889       0.08635589
Ar       3.43633545       8.30437925       3.85873466       0.04777548      -0.03912785      -0.03494893
Ar      17.28053377      15.76088760       6.36406929      -0.00185766       0.07793000       0.02875071
Ar       3.78360530      14.87654233       0.38496571      -0.02814296       0.01214676       0.01937243
Ar      13.24245584       6.89862151      10.45056762      -0.01811394       0.04254545       0.03842076
Ar      16.48257385       0.87150186       4.07787274      -0.05991703       0.04355884       0.00946978
Ar       5.03177349      17.27770321      13.97699031       0.03370808      -0.01885655       0.01006224
Ar       7.67459002      16.39787655       6.59377830      -0.01567812      -0.04896009      -0.03330230
Ar      15.15385948       9.45591377       5.75996908       0.04220464      -0.03570518       0.05590587
Ar       0.82004736      15.02982571       2.42770550       0.05281284      -0.11517239      -0.04762173
Ar      17.05996225       3.63768825       6.38881465       0.02756376       0.00627799      -0.02321860
Ar       5.80325276      10.89814306       4.80370050       0.00536408      -0.04476645       0.09145433
Ar      12.01603293       9.84034655       8.85738844      -0.05988155       0.03310732      -0.06238483
Ar      13.64941086       1.79854114      14.48669602       0.04393093       0.00354762       0.03966796
Ar      14.94062789       1.94258446       1.18123435      -0.02462275       0.05082233       0.05564095
Ar       7.05703858       6.67255248       3.94237889      -0.04278588      -0.02130585       0.00428944
Ar      12.70841966      12.07727908       3.73166607       0.02108774      -0.08000918      -0.02751618
Ar      16.36367015      12.20200512       3.84438045      -0.02253201      -0.02620156      -0.06196746
Ar       3.18390801      16.17405568       7.69956149       0.01097841       0.06910416       0.05464249
Ar       8.67352462       1.83101782      12.52558563       0.06426031      -0.00099461       0.12688572
Ar       0.12606786      10.70964949       0.66663230      -0.08633067      -0.03518258      -0.06668144
Ar       3.92178565      14.26612167      11.10908244      -0.08616078       0.00385255       0.00996174
Ar       2.99307539      12.10346811       2.44955365       0.05695961      -0.00325096       0.02561487
Ar      13.45031082      13.63072006      14.14591911      -0.04315177      -0.00604564       0.09825212
Ar      15.75417341      16.15048983      13.64689902       0.02590111       0.05383180      -0.12894788
Ar      13.89902181      12.90944821      10.38975295       0.02530030      -0.00750731       0.00623829
Ar       7.39453429      12.05648817       0.35666849      -0.05460853      -0.08532033       0.00360171
Ar       6.71038236       7.09954834      14.45581296       0.03007165       0.03065475      -0.04018137
Ar      10.32261521       7.31469678       0.31673690       0.05230076      -0.06374179      -0.08368438
Ar      16.39110991      11.24668127      14.58436062      -0.05297655       0.03084590      -0.00215009
Ar       5.64388885      13.78545722      14.88224003       0.03567942       0.02482036      -0.05850011
Ar       0.01271065      14.03353416      10.85720834       0.01254411      -0.06971341      -0.04370502
Ar      12.03069725       3.82057394       7.57505618      -0.03370629       0.02992989      -0.06943925
Ar       3.67604009       7.24379894      11.97682535      -0.02770717      -0.02812412       0.08307516
Ar       7.45260539      14.13559415       3.28321429       0.10428881      -0.00921785       0.02435258
Ar      10.30873235      10.84198431      16.60688389      -0.09165669      -0.00015610      -0.08704098
Ar       0.02340816       0.08777498      16.85133114      -0.01840263       0.07695759       0.06368532
Ar      17.13053411       2.73998269      11.91345543      -0.03187807       0.03279087       0.01788114
Ar       9.22453123       1.29436557      15.84113805       0.07525178       0.04775585      -0.03183094
Ar       2.94034751      10.57382056      10.94649606       0.01020260       0.02382475       0.05971412
Ar       7.05468686      10.72516937      14.17374206       0.03548950       0.02150230       0.07468959
Ar       6.15490195       0.16135045      10.00299179       0.01769728       0.00227589       0.04799730
Ar       6.90940702      13.68638826       8.55494360       0.10868253      -0.05595978      -0.00641401
Ar      14.10249604      13.15251194       6.74052112       0.00233411      -0.05744908      -0.02430096
Ar      11.68311559       4.05025802      11.70865947      -0.08086013      -0.01465171      -0.05238611
