108
Lattice="17.35 0.0 0.0 0.0 17.35 0.0 0.0 0.0 17.35" Properties=species:S:1:pos:R:3:momenta:R:3 pbc="T T T"
Ar       9.98350492      16.85431296       8.18728637      -0.10192921       0.01294734      -0.04983737
Ar       7.07093617      10.44280636      11.54278446      -0.04878661      -0.06379155      -0.00963994
Ar      14.01386770       2.55973787       3.78354328      -0.00167469      -0.04314174      -0.07649498
Ar      16.13598387       5.82905950      17.21771595      -0.02694834       0.05492214       0.06209974
Ar       6.10807186       5.71935500       7.87414639       0.06866690      -0.02366318      -0.06625583
Ar       6.17586605      13.72338847       2.92597606      -0.02646364      -0.08475006      -0.01100549
Ar      12.56690548       2.67835609       7.47653411      -0.02318375       0.01655155       0.03601090
Ar       7.36912514       8.11973930       5.30480176      -0.04338303      -0.03642143      -0.01571134
Ar       6.72202885      14.96979612       9.40754034       0.04388209       0.03124921      -0.00879227
Ar      15.16817903       1.16310973       0.18016714       0.08059839      -0.04123442       0.06325329
Ar       0.58826553       8.53775724       9.06149706      -0.03328634      -0.06849944      -0.02301282
Ar      16.80391253       4.65273716       9.44816726      -0.07659075      -0.09365600      -0.00071728
Ar      12.99484154       3.71777156       0.67393287      -0.01244588      -0.00868970      -0.01974511
Ar      11.15116761       0.35295743       0.57141069      -0.11488712      -0.05238660       0.02637578
Ar       3.22764333      10.27372393       0.49573421      -0.01974967      -0.06619521      -0.00844815
Ar       2.97974761       7.55522224       4.21876025      -0.01173536      -0.11653990      -0.08714847
Ar       9.39794972      13.00183474      10.21172982       0.02369340       0.04327822       0.01049106
Ar      13.44619873      12.16180357       1.88077105      -0.02621750       0.02103568      -0.01686301
Ar       3.67528207      16.15671384       8.19894523      -0.02617476       0.00785917       0.01329373
Ar       7.44675658       4.85959085      16.25763615      -0.02655196       0.03444111       0.13481694
Ar      16.91395704       6.10623661       5.50211775       0.08424368      -0.03032405       0.07189232
Ar       1.70728267      15.49388409      11.47758329      -0.00024395      -0.05569869      -0.05020184
Ar      12.39402991       6.09404619       5.93787885      -0.01110546       0.09328729      -0.02560515
Ar       6.06820574       2.49097234       4.25126693       0.01679037      -0.01455631      -0.05850252
Ar       0.87879999       2.04417918      15.70430743       0.04435987       0.00598722      -0.01739083
Ar      17.03376924      10.52415435      16.56816172      -0.07274895      -0.08270493       0.03135605
Ar       2.44462450       6.50510076      11.40451664      -0.04098744       0.01887058      -0.02464194
Ar      13.51975404      17.08737512      10.74463907       0.03683307       0.06457238       0.00163213
Ar       4.57427395       9.09154261       9.22554024       0.05171763      -0.03648099      -0.02412750
Ar      17.03499372      16.16471978       3.13795396      -0.02066695       0.04086580      -0.00495210
Ar       2.98632724       0.40283418       1.22656681      -0.10280411       0.02691016      -0.04973993
Ar       8.86629735       4.23535339       6.54651752      -0.05992552       0.05082196      -0.05275460
Ar      13.84292745       8.29711301       9.65831829      -0.06314962       0.09383877       0.02675905
Ar       4.34861686      12.62574670      11.03080418       0.02541581       0.01366163      -0.04642563
Ar       3.44849054      16.35435036      15.07129570       0.00564060       0.01851966      -0.09297526
Ar       0.16117255       4.62570615      13.58833096       0.04828788       0.04949671       0.02361365
Ar       3.21273069       2.99816519      12.02220735       0.01388338      -0.04810325      -0.06966779
Ar       3.06438966      13.67335484       0.90099274       0.00005754       0.05080773       0.04647586
Ar       3.45217571       5.40669870      15.08138617       0.00340338       0.01418057      -0.12260690
Ar      15.89072389      14.19896532      10.64123870       0.00769414      -0.10173372       0.06193082
Ar       4.26620044      11.01026316       5.91843383      -0.08900591      -0.00100153       0.02619365
Ar      10.22798219       2.71719973      15.22015526       0.08782945       0.06414108       0.05054126
Ar       5.78478481       7.20268725      12.02110613      -0.07153479      -0.00536855      -0.00766648
Ar       3.61624469       5.14575784       1.22385304      -0.02351089       0.03072316       0.05975497
Ar       5.71230456       1.95633096      16.14948225       0.02121998      -0.03671105       0.00136896
Ar       1.82675726      10.39414751      12.28937389      -0.03183025       0.00668390       0.02778481
Ar       6.01870442      14.60171372      16.93762010      -0.01409117       0.04410188       0.04713611
Ar       3.68516341      17.24294504       4.85256363       0.07916766      -0.04835984       0.02917898
Ar      13.98524585       2.08670868      13.88559523      -0.07311711      -0.04886341      -0.11938771
Ar      16.98415496      15.89219710       7.71764969      -0.00804454      -0.01090131       0.01860833
Ar       9.84996329       5.55671272      13.04021912       0.07467442       0.01032435      -0.07756997
Ar       9.42187272       7.26880318       9.49598750      -0.11358978       0.04673206      -0.06482645
Ar      13.58469431      15.86294220       2.30849827      -0.01836546       0.00070810       0.00568466
Ar       7.52523716       2.48343445      13.09549283       0.05718988      -0.00672534       0.06350233
Ar      15.16272490      13.85126037       5.50512873      -0.02283165      -0.01363197       0.03588474
Ar       9.54386230       3.60190933       9.74969785       0.09074124       0.07791041      -0.00566615
Ar       6.84802384       5.44172692       2.48561112       0.01223523      -0.01861069       0.04560385
Ar       9.41270939      14.84694941       1.17333948       0.01018677       0.01882966      -0.02174516
Ar      10.16132438       6.50021186       2.04379197      -0.02880419       0.03409356       0.03397339
Ar       7.89399031      10.84832553       7.38194945       0.07732489      -0.17647455      -0.03252226
Ar       0.01548792      15.01849601      17.07459640      -0.01626298       0.01188595      -0.02371696
Ar      10.97140698      13.04323811      14.71383144      -0.07277407      -0.02280206       0.03535342
Ar       9.97239697       0.94147076       4.26968017      -0.00349287       0.03748253       0.01382280
Ar      13.00397812      14.31209328       8.32173054       0.01829255       0.12935109       0.01142393
Ar      14.19090749       8.85751480       5.08405852      -0.00274705       0.02146609       0.11990962
Ar      16.77269933      12.03397688       2.56523319       0.01787276      -0.04895870       0.00721702
Ar       7.31541106      10.29922610       2.07757586      -0.01394314       0.03109475       0.01702550
Ar      10.38082790       9.86621397       3.76275375      -0.03504694       0.05640685      -0.08933734
Ar       0.52878497       3.47358223       2.13992551      -0.01937957      -0.00341270       0.04377144
Ar       4.72874472      17.22301344      11.87136707       0.03112592       0.00977566       0.00059536
Ar       2.50170935       2.39207451       8.32900254       0.03860959      -0.08413724       0.09036820
Ar      11.65692074      10.97469626       7.70986289      -0.04786366       0.05347758       0.04079692
Ar      13.64075858      10.16738360      14.98937170      -0.16013146      -0.01670580      -0.02787792
Ar       2.94806849       3.88191498       4.86800892       0.02576456      -0.00457480       0.04734968
Ar       2.52859978       5.79618874       7.66762077       0.06873986       0.10543143      -0.03548378
Ar      10.66359676       9.85912684      12.62944168       0.03781445       0.06813171      -0.04115008
Ar      12.34862153       6.88946576      16.18824711      -0.01020053       0.10845778       0.06080354
Ar      15.85523089      16.68061027      13.95415347       0.07885585       0.08702504      -0.04475503
Ar       0.24163197       9.82738902       5.22065127       0.03931763       0.05226425      -0.00875629
Ar      14.15569949      13.84613188      16.14593977      -0.02708930      -0.02565956      -0.04461093
Ar      10.77133405      13.63340681       5.07836479       0.08137032       0.02263084      -0.01814801
Ar       2.19192841      14.03610835       5.01392166       0.01439339      -0.13265498      -0.05565877
Ar       9.02126043       2.92719035       1.80642995       0.02693718       0.00729424       0.06084722
Ar       0.15595712       8.17453203       2.04518719      -0.01136859      -0.07241941      -0.10212929
Ar       3.79621604      12.65783483      14.71199446      -0.02757481      -0.00743601      -0.00618078
Ar       6.25681628       1.43630936       8.48828992       0.04940650      -0.03412253       0.00521087
Ar      12.78679114      12.95033382      11.62031720      -0.02656974       0.00211691       0.04426855
Ar      15.57153844      10.41870966      11.75681883       0.08642912      -0.00809591      -0.02764153
Ar       7.18272987      11.30018154      15.59710708      -0.03132578       0.00587121       0.04092094
Ar       8.72345101       8.19745994      15.54435253      -0.01214345       0.00790026       0.00108232
Ar      13.33843145       4.41403282      10.61170700       0.08210922      -0.01214707      -0.01518725
Ar      12.93675704       8.35238415       1.88628910       0.02306471       0.11496575      -0.07131386
Ar      17.05875917      13.44341112      13.94477667      -0.00526918       0.01538805       0.03291990
Ar       9.06872677      16.99616832      11.35446418       0.00680344       0.03569072      -0.01244361
Ar       0.92766013       8.10796560      14.67908333      -0.07638065       0.01014142      -0.02010097
Ar      17.12543070       1.97151422       5.50496002       0.09052165      -0.05879771      -0.05784551
Ar       4.38143791       8.88210711      14.87387796       0.04861377      -0.06544611      -0.07000097
Ar       6.59114109      17.04569729       2.26527492       0.04947765       0.06256636       0.02176740
Ar      10.61757257      10.72528491       0.15195647      -0.01047590      -0.01662831       0.05775654
Ar       0.13672619       1.66996561      11.67186235       0.00326643      -0.06185483      -0.05742408
Ar      14.38510930       6.92423506      13.15913191      -0.02849524      -0.11067192      -0.00667971
Ar       8.86644836      16.75117648      15.19402800       0.06337341      -0.11651105       0.08042164
Ar       1.97309495      12.16706912       8.50839933       0.04379831       0.03552358       0.06109567
Ar       7.24931366      14.18316087      13.02526861      -0.00321657      -0.00857280       0.11531055
Ar      12.34687397      16.63945788      14.90212586       0.00511365       0.06220318      -0.03162200
Ar       7.28993680      15.96198823       5.58902676      -0.01737582       0.02730175       0.13465552
Ar      15.39120698      11.35183675       8.23013670       0.01623022       0.05680326       0.03590053
Ar      13.76059443      17.20289040       5.77206070       0.03245389       0.00982765      -0.00509958
