108
Lattice="17.35 0.0 0.0 0.0 17.35 0.0 0.0 0.0 17.35" Properties=species:S:1:pos:R:3:momenta:R:3 pbc="T T T"
Ar       9.58608192      13.54170683       2.34573280       0.04233614      -0.12631146      -0.09487734
Ar       7.80379184       9.28475340      10.31903831       0.06660903      -0.00301409      -0.04718625
Ar      11.50919650       1.94359658       4.61162935      -0.03442538       0.00824688       0.10498189
Ar       0.29814956       5.40161932       3.53425280      -0.03483895      -0.07978497      -0.05857839
Ar       4.67968512       4.47981778       9.90172457      -0.07487722      -0.10007083      -0.07924635
Ar       6.12696484      13.63591592       3.28524430      -0.00618151      -0.01938439      -0.09094253
Ar      13.02742013       5.35854028       6.67465506       0.01566888       0.04751780       0.01810774
Ar       9.98186559      11.02065668       5.48383465      -0.04684758       0.11896520       0.07163022
Ar       8.87015886      15.66666479       9.83116701       0.08230211       0.09672618       0.01447187
Ar      13.91755766       2.12056463       0.47338194      -0.01083198      -0.04698044      -0.00523403
Ar       2.16972854       7.89031336      11.09740809       0.07531671      -0.02791238       0.00125273
Ar       2.66353230       1.82171320       7.94154227       0.09991001       0.09444789       0.01194279
Ar       9.72167741       3.15762817       1.22860237      -0.00792663       0.12882081      -0.00052043
Ar      10.69263095      14.17778438      14.68968400       0.03556478       0.00815784      -0.03064215
Ar       3.26287756      13.56939598       0.18605997       0.05815931       0.04335224       0.07531466
Ar       3.15621756       5.87516415       6.42161233       0.07505172       0.08414374      -0.02793282
Ar      13.43042692       9.01422273       6.58274646       0.03893746       0.07764799      -0.02713881
Ar      12.68192236      13.47792380       0.91101829      -0.03086168      -0.05098565      -0.00173548
Ar       9.50843180       1.05099890       7.10921045       0.00536070       0.03294137      -0.00814615
Ar       3.22657992       7.69072209      16.22298751      -0.01551041      -0.05318185      -0.05946706
Ar      14.25514741       6.38947234       2.93145048      -0.02240497      -0.05616613       0.01381032
Ar      15.85057651       1.81137367       9.85131057       0.09191295       0.02015252      -0.03010707
Ar       6.56441622       5.69245343       3.81663504      -0.03922001       0.03733839      -0.06433545
Ar       6.64621999       5.29651247       0.02280672       0.00858529       0.00979818       0.02543250
Ar       0.38413960       3.62396033       0.70744066      -0.03198513       0.06785653      -0.07511651
Ar       5.18775222      16.56267676       1.46059439       0.04719616       0.02782530       0.04364015
Ar       5.68924606       3.30378437      13.35382409      -0.11071569       0.04876644      -0.00102782
Ar      12.36933771      16.89715791      10.29283464      -0.04418459       0.00558172       0.02712967
Ar       4.48361557      10.23417343      11.68901885       0.01688311       0.00642591      -0.02943664
Ar      15.77534118      14.42900636       5.44663039       0.05796964       0.04069672      -0.07498138
Ar       5.01235273       2.28262354       2.93583496      -0.01489356       0.03190274       0.02221446
Ar       7.93485309       4.39547385       7.00645800       0.00042790      -0.08949315       0.08049986
Ar       0.12809523       7.54016317       7.38328648      -0.02656825      -0.07561719       0.03510512
Ar       6.14598817      14.00050544      10.33282635       0.08800117       0.02603950      -0.05237273
Ar       2.47290759      16.76906568      15.93657300       0.06039280       0.03235252      -0.05329591
Ar      14.65969716       5.33276124      15.81826842       0.01186516      -0.05181087       0.09191330
Ar       0.87264970       5.00663312      14.82561142      -0.01274830      -0.02234563      -0.10482239
Ar       2.90150782      16.90267691       4.19051698      -0.05697622      -0.01579754       0.00372371
Ar       1.05876124       1.90429209      12.04622314       0.11945918      -0.07671685       0.13402090
Ar      15.98326529      15.22298604       9.52188094      -0.07706803       0.02961989      -0.01565936
Ar       4.06069380       8.70503019       8.43990970      -0.05090253      -0.02022429       0.00223048
Ar      11.55961346       5.93401816      12.38220838       0.00553715       0.01687637       0.03216854
Ar      16.00390060       7.12434548      12.91415772       0.00975356      -0.00650148       0.04262687
Ar       3.55007153       7.08686876       2.90499062      -0.02587667       0.06456453       0.02430827
Ar       3.95430319       3.35736836      17.00280307      -0.02751957      -0.06214917       0.01488922
Ar       1.13736576       9.91615108      13.89367029       0.03687153      -0.07064867       0.06926392
Ar       4.23258765      14.10638098      13.85308800      -0.00017956      -0.01841803       0.08121498
Ar      17.01907153       0.45282962       6.08242099      -0.00615244      -0.04335221      -0.02675392
Ar      12.47838008      17.26295092      13.77893296       0.01444439       0.01002474       0.08706108
Ar       0.59708230       4.78245247      10.44502655      -0.00487379       0.07247537      -0.00452694
Ar       8.98644301       5.92188070      14.93485872       0.00125890       0.04310872      -0.03987722
Ar       8.29568168       7.72047302       6.79944228       0.00282638      -0.00930391       0.00720810
Ar      13.93769671      16.35920435       3.01017057       0.00269207       0.02851167       0.04939305
Ar       6.49002783       1.42996271      10.03907724      -0.02973792       0.09771117       0.03707553
Ar       1.44723992      14.07689672       7.94780207      -0.07349913       0.01017269      -0.05869119
Ar      11.90325038      14.54919221       6.87509367      -0.00173045       0.03819007       0.01984286
Ar       1.48594051      10.70798241       0.31341061       0.00782654       0.00110625       0.07456418
Ar      11.86492544       9.29002454       2.88649025      -0.09696503       0.00132670      -0.03374077
Ar      11.52882183       6.33535616       0.11281286       0.06419100       0.07642218       0.06320376
Ar       9.37663028      12.02042689       8.81956056       0.05271022       0.03980717      -0.00990292
Ar      17.30222171      17.31771449       1.46205874      -0.02078784      -0.00575906      -0.04985335
Ar      12.90371107      13.30490781      10.19581765       0.05246004      -0.05103041       0.02123731
Ar      11.33590757      16.67659057       0.22379060       0.10384795       0.03304405       0.00676952
Ar      10.46800772       6.14512633       3.80658336      -0.06222895       0.09202971      -0.04328555
Ar      16.80209957       9.09976304       3.73603797      -0.01374730      -0.04192671      -0.04197625
Ar       2.44002589      12.98079575       3.79222565       0.00136036      -0.03164970       0.00385213
Ar       5.10017097      10.25356231       1.26019801      -0.02696134      -0.06741690      -0.09778757
Ar      10.90014227       8.39600329       9.02829867      -0.01395690      -0.08414342       0.07603654
Ar      15.48394303       2.70629560       3.61995665       0.00528541       0.09529512       0.03467817
Ar       4.14612750       0.47677455      13.01721211       0.00514552      -0.03559760       0.04576216
Ar       5.95006889       1.24844329       6.17100760       0.04389722      -0.04127143       0.00166655
Ar      14.13246470       6.20570648       9.84072578       0.00013287       0.07205085      -0.01570358
Ar      15.09995391      10.45644636       0.14624094      -0.01342459       0.03072867      -0.09225548
Ar      17.14570407       4.05061486       7.01587286       0.05167287       0.07234132       0.00355073
Ar       6.04405073       9.34944861       4.61780320      -0.02945061      -0.16300393      -0.01882246
Ar      15.01241187       9.54204804      10.63557885      -0.02516668      -0.04685474      -0.08506532
Ar      12.32163233       3.05212377      14.84376932       0.05170498      -0.02058544      -0.08348008
Ar      14.87379831      16.06827260      16.34967487      -0.09751799      -0.01949127       0.14099990
Ar       2.44398775       9.57309953       5.49167970       0.00392786       0.01115501       0.01953856
Ar      16.27615090      13.53408402       2.10323004      -0.01877181       0.02458504      -0.01647970
Ar      13.13895848      12.33369377       4.29747554      -0.07684345      -0.00862720       0.00050954
Ar       4.48204164      15.91232850       8.04120204       0.01633713       0.01198308      -0.04660090
Ar       7.21152059       1.78328615      16.43680386      -0.01911259       0.00488013       0.03951092
Ar       0.11263462       7.17307517       0.55754013      -0.01391098       0.06175276       0.04877554
Ar       1.91932972      15.67654329      10.89399649      -0.01317609      -0.00495412      -0.00328137
Ar       4.90925190      12.15968327       6.82684860       0.04468193       0.01904820      -0.05182850
Ar      14.03701130      12.45060975      14.12747417      -0.03269413      -0.00863831      -0.05909742
Ar      16.10609127      16.50871613      12.69889152       0.04305258      -0.06262800       0.07813357
Ar      11.54911448      11.00570688      12.21733867       0.01276919      -0.01199964      -0.02584899
Ar      11.27975390      11.05303847      16.52946737      -0.06091988       0.01584673       0.03747723
Ar       8.40047320       5.84259181      10.22775865      -0.00958006      -0.00522539      -0.04190275
Ar       8.40509236       8.52943667       1.92016860      -0.01777347       0.03464978       0.01410113
Ar       0.13943193      13.49477794      16.03949846      -0.01162100      -0.08931170       0.00843495
Ar       7.75490091      16.26073696      14.48892849       0.01640964      -0.05544063       0.10380846
Ar      17.05300140      12.97855562      11.91135175      -0.00614622      -0.01105270      -0.01784377
Ar      13.67414583       0.53409937       6.87163764       0.02083793       0.09278004      -0.02826688
Ar       5.79743294       7.27588728      12.75572321      -0.00068657      -0.03574282       0.03248900
Ar       8.22885679       0.23415575       3.46279174      -0.03332150      -0.06124291      -0.00058371
Ar      12.97994116       8.57278630      14.76316513      -0.00378649      -0.02255030       0.02169100
Ar      16.79811839       1.32690489      15.45783246      -0.00393931       0.04775468       0.03462620
Ar      14.97892764       3.87247844      12.47298911      -0.07236986       0.03440111       0.04712337
Ar       7.22312002      12.98557143      16.27557530       0.01227682      -0.05694584       0.01394739
Ar       1.62019020      10.93319331       9.72522638       0.03550145      -0.04606977       0.03907414
Ar       8.06385059      12.18174442      12.82718012       0.00754939      -0.03759863      -0.06375955
Ar       9.48395736       1.64510290      12.78552025      -0.04725733       0.02636319      -0.02951043
Ar       7.98122876      15.13927371       6.59483252      -0.03724811      -0.12855006      -0.06152926
Ar      15.75591436      11.71913743       7.75273632      -0.02104127      -0.06256262      -0.04422655
Ar      12.18908173       3.18053217       9.48131794      -0.00492759       0.03773104      -0.02875130
