108
Lattice="17.35 0.0 0.0 0.0 17.35 0.0 0.0 0.0 17.35" Properties=species:S:1:pos:R:3:momenta:R:3 pbc="T T T"
Ar       9.70457973      14.24016137       5.40169172       0.00269296      -0.00926719       0.00040744
Ar      10.71485766       8.38128440      13.35310076       0.04816280       0.05062922       0.02192947
Ar      13.64285222       2.90842594       3.49687090       0.06908756      -0.04392906      -0.04594691
Ar       0.06697600       5.94670842       5.57031128       0.05890118      -0.11207177       0.01829821
Ar       5.50700933       4.21502006      11.14847925      -0.03648947      -0.02295493      -0.01696936
Ar       5.57859050      15.20464778       4.76836114      -0.02866347       0.00126823       0.00103677
Ar      13.79032121       5.51438601       5.95286108       0.02455494      -0.09393800      -0.06160554
Ar       9.17270953       6.17518699       7.44196466      -0.06130342       0.03083027      -0.01676028
Ar      10.90624264      13.83345667       8.66454197      -0.07681402      -0.06210833      -0.08558425
Ar      16.07164072       4.94222125      17.08980263      -0.02493101       0.00295919      -0.06477518
Ar      16.55641285       8.96665841      10.35437906      -0.02253452      -0.05416387       0.14727118
Ar       2.00959211       1.64380500       8.95819207      -0.03565087      -0.00232625      -0.02732653
Ar      11.06912070       3.80966619       0.76559879       0.06872861       0.00207026       0.07454756
Ar       9.99951906      12.46958291      12.43249310       0.05321361      -0.05365809       0.04466608
Ar       2.25144655      16.77980747       0.59564325       0.08153580       0.08862499       0.04622235
Ar       3.21504871       3.94680429       6.19166365      -0.05886095       0.12101954      -0.00839041
Ar      12.09672439       8.75435236       6.12621483      -0.09224327       0.00393610       0.02967856
Ar       9.96588210      12.91812314       0.89207528      -0.04296752       0.03169331       0.08754680
Ar       9.27574312       1.15237069       5.21445130       0.00054471      -0.07490476       0.01691719
Ar       1.96716307       8.56537534       1.18585336       0.09481157      -0.02441288      -0.04483334
Ar      13.21212778       7.38057074       2.36100566       0.07733439      -0.05484070       0.03035236
Ar      15.80621996       1.79351312       9.82858247       0.05313778       0.05151675       0.00807138
Ar       6.90361435       3.93973822       5.28703578      -0.01198196       0.06651817       0.00545981
Ar       6.12571215       8.10414910       0.81230294      -0.09414850      -0.09963319      -0.05998671
Ar       0.74208629       3.28025419       2.47762616       0.02925890      -0.00181222       0.06327925
Ar       8.63832239       1.75360497      16.73977283       0.02380186       0.06317881      -0.08005804
Ar       5.58800304       3.57717754      15.36100860      -0.05789562      -0.03289952       0.00151813
Ar       9.98621186      17.31780332       8.67338500       0.03395923       0.08677268      -0.01031894
Ar       4.27552496       8.69868972      15.06171474       0.04296722       0.05065599       0.07938425
Ar      15.47402518      14.02099171       3.38422442      -0.03731777       0.02666969      -0.01051596
Ar       7.45592242       4.37600389       1.44256442       0.02316745       0.06030063       0.12174134
Ar       8.16236683       2.92780573       9.01078845       0.02101435      -0.02988719      -0.02234481
Ar       3.33772954      12.36629257       8.40945126       0.05229094       0.07420397      -0.05976541
Ar       7.17005439      10.03380846      10.61744487       0.01927420       0.07295354      -0.04510976
Ar       3.03019337       2.24665253      12.97749432       0.05049465       0.02717888      -0.07000685
Ar      14.06557049       5.36716527      12.65090540       0.02165835      -0.03095583      -0.08592591
Ar       1.77907863       4.97913752      15.38929021       0.03754446       0.08028149       0.00869670
Ar       2.41994453       0.09406022       4.37277947      -0.00906038      -0.05812508       0.01211671
Ar       1.95544480       5.16241413      10.26605445       0.01910896      -0.01813596       0.03450638
Ar      12.44653425      17.26607910      11.71132363       0.07682746       0.00024273       0.01657899
Ar       5.44195499       6.27206996       8.06807837       0.03574568       0.03317968       0.04877670
Ar      14.33113146       9.55000428      13.80572285       0.03396554       0.01648552       0.01776509
Ar      16.17587290       6.00661373       8.69870024      -0.02668597       0.09974158      -0.03678579
Ar       5.35228061       1.49250661       3.10683779      -0.08982601       0.11414065      -0.02063780
Ar       3.97997634       4.74284666       1.35332739      -0.03488971      -0.04975380      -0.11341572
Ar       0.58992531       8.60482250      14.47779026       0.05991814       0.05657696       0.06744885
Ar       2.53793187      15.73472293      14.88829607      -0.01012866       0.05715698      -0.09898888
Ar      16.56366071      16.26828442       7.77791161       0.01772026      -0.00995536      -0.00075806
Ar       9.09141933      16.60675706      13.36691216       0.03569937       0.15255922      -0.03463644
Ar       1.97917075       8.80060721       7.31962086       0.01302616      -0.04153935      -0.01128955
Ar      10.77344037       4.69395268      14.32387624       0.08043816       0.00603769      -0.03473619
Ar       8.72186411       5.66945374      11.02202700       0.02481455      -0.00748984       0.02785995
Ar      13.27996217      13.57246383       0.42200039      -0.09287595      -0.01316205       0.01026720
Ar       5.77097838      13.76346142      11.14001060      -0.01936862       0.04620299       0.05601850
Ar       0.20161908      12.48827883       6.14727413       0.03365090      -0.07233616       0.03046538
Ar      13.00118087      15.86022707       6.75110451      -0.07961124       0.01068903      -0.05502479
Ar       3.55579318      12.32174952       0.73952331       0.10007809       0.08512988       0.04086762
Ar       9.83878970       9.77839649       3.15063048       0.05734705      -0.05072027       0.05316145
Ar      12.75533125       6.51155093      16.30544915       0.02270154      -0.04495437       0.10116413
Ar       5.40893204       9.85526425       6.89071844       0.02739869      -0.06962443       0.06136276
Ar      15.93421054      15.67348260       0.06341371      -0.11152449      -0.00183524      -0.07192866
Ar       9.14808775      10.78778379       7.65726924      -0.06763640      -0.06384788       0.07120168
Ar      12.40297199      16.65066203       2.95959542       0.04676928      -0.02347453      -0.00755171
Ar      10.32877150       5.17522622       3.99658701       0.01672683       0.01712520       0.05094981
Ar       3.94669153       7.56712710       4.75720211       0.01668371      -0.08306717      -0.01985127
Ar       1.92496988      14.15268203       2.96416678       0.07222115       0.02899340       0.00008922
Ar       5.73682614      15.27281712      17.14391254       0.00206880       0.01489191      -0.08489206
Ar      12.37440893       6.12447471       9.12486141       0.03624462       0.03886038       0.03030315
Ar      16.29998199       0.10884141       3.54893432      -0.10315544       0.07637178       0.00916965
Ar       5.99020921       0.17701866      14.28098863       0.05516501      -0.04531580       0.02103799
Ar       5.33726531       0.76025817       7.13745197      -0.03496218       0.02121072      -0.00310389
Ar      15.29666558       9.07329049       7.03084628      -0.01290042      -0.04236235       0.04408295
Ar      17.28543152      11.68546015       1.58382420      -0.11699469      -0.00993911      -0.04458892
Ar      17.33397854       2.50471217       6.38950092       0.02630215      -0.03357970      -0.00209387
Ar       7.31941874      11.89985472       4.34577804       0.00659343      -0.01591504       0.04797185
Ar      11.47431541       9.80603031       9.96657642       0.01469619      -0.02759657       0.03401462
Ar      13.78115262       2.11868896      14.20695657      -0.00610707      -0.00511729      -0.00396775
Ar      14.29625323       1.83977829       0.15664645       0.02466767      -0.04812178       0.01775996
Ar       7.43621217       7.22401707       4.16458997       0.02406935      -0.01613953       0.06552129
Ar      12.56964648      12.31610706       4.82702751      -0.06490424       0.05663496      -0.02355912
Ar       0.16994258       9.52882100       4.34320787       0.03459713      -0.10712306       0.09700742
Ar       2.72465292      15.60340323       7.37018697      -0.03545297      -0.03155486      -0.04241519
Ar       8.09758198       2.84972941      12.97960367      -0.00793750      -0.03499047      -0.13486947
Ar      15.45969906       8.89592068      17.16755825      -0.00776722      -0.04313871      -0.02678525
Ar       1.55760754      15.94957963      11.01151894      -0.07965051       0.00176877       0.04792212
Ar       3.62676369      11.32582116       4.56085276       0.04575306       0.01076274       0.02475126
Ar      12.71506522      14.37167689      14.22808841      -0.05490062      -0.04234519      -0.03181488
Ar      15.90413124      16.25234812      13.63380276      -0.02923938      -0.01697216       0.03473015
Ar      13.78362133      13.82385245      11.01116573      -0.01661117       0.05640592      -0.01867319
Ar       6.74844565      11.48646263       0.50541205      -0.10352678      -0.06850879      -0.03278019
Ar       7.24285999       6.48525169      14.34542784       0.03105581       0.02383258      -0.04235412
Ar       9.61719751       7.92797611      17.15039818       0.00450804      -0.01331216      -0.01499013
Ar      16.56332543      12.37106945      15.12252288      -0.01347968      -0.00897945       0.00625631
Ar       5.00021402      12.61812557      14.62549438      -0.02055458       0.09999469      -0.05191811
Ar      17.10649998      12.51980480      10.06256115      -0.08077322      -0.01063332      -0.02094020
Ar      11.64403774       2.91924005       7.08571973      -0.00540666      -0.00676083       0.04276191
Ar       4.28874452       8.13676911      11.18096505      -0.00641485       0.06955250       0.03757139
Ar       8.44244474      16.36751667       2.26740511       0.00096997      -0.01127687       0.03338255
Ar      11.71298340      11.10492404      15.91878037       0.01102407      -0.02287969      -0.00804468
Ar       0.21377792       1.53554217      15.38506768       0.03621282       0.01848162       0.09706025
Ar      16.92051357       3.28917545      12.68677475      -0.01103900      -0.03283777      -0.01085518
Ar      11.06374282      16.23904575      16.78148068      -0.20973871       0.04639646      -0.04425356
Ar       2.58202602      11.01923479      12.47247410       0.00207605      -0.09907650      -0.06936195
Ar       7.84430849      10.16383871      14.76953401       0.03102752      -0.03447134      -0.00634906
Ar       6.44884329       0.06966177      10.46935973       0.03071372       0.06909411      -0.00785726
Ar       7.14920469      13.57425074       7.94025246       0.06225361      -0.01292142       0.00441542
Ar      14.26763805      12.61458343       7.68145838      -0.02971912      -0.07793838      -0.05050839
Ar      11.45477222       3.15879052      11.09819976       0.01566771       0.00981105      -0.10454002
