108
Lattice="17.35 0.0 0.0 0.0 17.35 0.0 0.0 0.0 17.35" Properties=species:S:1:pos:R:3:momenta:R:3 pbc="T T T"
Ar      10.38144248      15.32314598       3.12243296      -0.05218930      -0.05327367       0.00921463
Ar       7.69818988       9.26943993      10.91380824      -0.04176757       0.01014021       0.04420969
Ar      11.45475881       1.60492046       3.09271077       0.05745758       0.11552769       0.01780283
Ar       0.66952759       7.11472411       4.68497246       0.01806146       0.01973654       0.00077814
Ar       5.27860771       5.21857738       9.41127286      -0.06928923       0.01203244       0.12680602
Ar       6.33966947      14.20874000       3.71597125      -0.10539686       0.03115990       0.03523298
Ar      12.14454650       3.45755666       5.92073690      -0.01849873       0.05096992       0.05736216
Ar      10.66994791      10.07774448       5.77440469      -0.06349420       0.10980586      -0.11465136
Ar       9.77402594      14.46602786      11.36892816       0.04519351       0.00175117      -0.08795936
Ar      13.56091614       2.24038201       0.27530555       0.04418470      -0.02717584       0.08808757
Ar       2.94789181       7.93153433      11.65308937      -0.02025991      -0.11965169       0.00020308
Ar       2.77282580       1.27223634       9.07299790      -0.04678608      -0.04411950      -0.06476969
Ar       8.94257980       3.35909510       0.79771599       0.02306877       0.00807044      -0.00947581
Ar      10.53554121      13.43237410      15.06181005       0.06942058      -0.01273631       0.04628603
Ar       3.82222780      13.92540141       0.50495087      -0.07341162      -0.06804663       0.00024791
Ar       3.19438051       4.76621319       6.44117352      -0.03883221      -0.09691810       0.09707267
Ar      13.84884394       7.55279438       5.60393373      -0.01008962       0.07382748       0.00050267
Ar      12.06792429      13.03009663       0.56353130       0.08884406       0.02249651      -0.02748244
Ar      10.36232571       0.92397926       7.75770042      -0.05838595       0.04178040      -0.04062992
Ar       3.97765852       8.49710956      16.74674943      -0.01526043       0.05700632       0.02290530
Ar      14.04184447       4.79508652       2.96449442       0.07472711       0.05164454      -0.02035724
Ar      15.67518402       2.13322658       9.09974067      -0.04132645      -0.04465517       0.02444848
Ar       6.29166596       5.97678674       5.05789606       0.09014303      -0.02549450      -0.10446987
Ar       6.50885331       5.58418150      16.52373785       0.08188106      -0.06774913       0.15015304
Ar       1.66535752       3.71587649       1.51567510      -0.09093512       0.01839698       0.00824659
Ar       5.19978840      16.95015474       1.41327393      -0.02748055      -0.05485195      -0.00247602
Ar       6.36853153       3.47988181      12.74001611       0.03092647       0.04488607      -0.02957956
Ar      12.93089070      16.82880259      10.08322174       0.04701279      -0.02227746      -0.02971014
Ar       4.16241035      10.79105769      14.18316115       0.03742920      -0.01101720      -0.10002363
Ar      15.49639080      14.52782104       4.66693134      -0.06353994      -0.01997317       0.01436314
Ar       5.35252313       3.20714299       2.04663947       0.00898567      -0.06244150       0.00938662
Ar       8.76453536       3.90905609       7.53063636       0.02065602      -0.04680712      -0.00576732
Ar      17.16218863       8.58022890       8.49782267      -0.04605613      -0.01357926      -0.07890263
Ar       5.73067232      14.31066266      10.61365825      -0.07169149      -0.01641206       0.02891326
Ar       2.15118434      16.83445353      16.48978894       0.02463602       0.02094129      -0.06074168
Ar      14.99809234       5.37530419      15.66298393      -0.07854628      -0.06437994       0.08820226
Ar       2.18402003       5.79419400      14.43931251      -0.06485190      -0.01113726      -0.03763774
Ar       3.52445634       0.10760184       4.36013791      -0.01188090      -0.11287618      -0.01639297
Ar       0.54018106       2.32628159      12.76607842       0.05254332      -0.03459743      -0.03221866
Ar      15.74406578      15.32971483       8.05876839      -0.01054209       0.02722060       0.07441011
Ar       4.10954545       8.56360043       7.87109018       0.06793325      -0.00869701       0.01668928
Ar      12.47661577       6.24185224      12.50269085       0.06461889      -0.04281207       0.06327442
Ar      16.01925157       6.82575760      11.84733535      -0.01318538       0.06291553       0.04336713
Ar       3.61736458       6.28167189       2.56104392      -0.03870739       0.00386385      -0.04278649
Ar       3.67785005       3.04017894      15.91271278       0.01337233      -0.05300026      -0.00311093
Ar      16.85017976       9.73204081      14.46530287       0.08153845       0.06937230      -0.06228325
Ar       3.35025672      14.50795493      13.83518863       0.05614298       0.09823009      -0.01044897
Ar       0.09127087       0.72735344       6.30651532      -0.02234113       0.01295216      -0.07198860
Ar      11.34149114      16.63630101      14.04647114       0.00749911       0.02329462      -0.02986511
Ar       1.16126866       4.81434843      10.43784523      -0.06627988       0.00776030      -0.01984321
Ar       9.76827071       7.45266351      14.65135483      -0.01708442      -0.12745906       0.01167996
Ar       8.75837827       7.66777470       7.79681014      -0.03176597      -0.01441042      -0.03534456
Ar      13.67713518      16.13610138       2.00094938       0.07690531       0.01815705       0.04701332
Ar       6.55952336       0.24156366       9.51401460       0.07607093       0.01744487       0.03337862
Ar       1.37793719      14.05187814       6.78546008       0.02598077       0.02613074       0.04632725
Ar      11.67362401      13.77433155       6.80255465      -0.08525520      -0.03813427      -0.02689881
Ar       1.45372396      10.48483398       0.84816903       0.00996475      -0.07057844      -0.07004939
Ar      12.64707769       8.11670924       2.35503688      -0.00627221       0.10402287       0.04247906
Ar      11.59965244       5.68405470      17.05424127       0.03303973       0.07836448       0.06456000
Ar       7.95554471      11.89370023       8.29134815       0.10119235       0.06055776       0.00546259
Ar       0.57009383      16.08675038       2.77151589      -0.00852537       0.03466990       0.04547603
Ar      12.61304129      12.47599098       9.86994127      -0.03852697       0.03173031       0.02309134
Ar       9.50309645      16.89167450      17.29822562       0.00998100      -0.07376774       0.00284202
Ar      10.16385343       5.84665975       3.88944712       0.02909116      -0.09056309       0.00274684
Ar      16.96960639      10.49638922       3.84434247       0.10457573      -0.00150345      -0.02377876
Ar       2.05129626      12.88733734       3.57905639      -0.08260159      -0.06031134      -0.01496334
Ar       5.40977161      10.27836224       2.00640275      -0.02133836      -0.03499570       0.04604272
Ar      11.55775896       9.07988974       9.48926520      -0.04416753       0.02663357      -0.00374093
Ar      15.44130618       1.31735987       3.58207970       0.01135378       0.05586757       0.02439910
Ar       3.81235561       0.68222962      13.14985135       0.02096903      -0.00510746       0.06553753
Ar       5.84779960       1.99089989       6.41240974      -0.00915467       0.01270980      -0.07472753
Ar      14.40157219       6.21870285       8.64903958       0.00767798       0.01371504       0.05859053
Ar      15.12023048       9.55478355       0.29517430      -0.10976362       0.04609759      -0.12988962
Ar      16.97529195       4.25854490       6.47815592       0.06586020      -0.03199972       0.00164580
Ar       6.87398006      10.39427523       5.32834419       0.05317622       0.06309248      -0.04577386
Ar      14.51887185       9.88344765      11.13099220       0.04525940       0.07140234       0.11818120
Ar      11.85659735       3.04639718      14.59919706      -0.02748746      -0.01455066       0.00195724
Ar      15.15427178      16.30986521      16.00956573      -0.05109604       0.05320721      -0.02301756
Ar       3.24740970       9.36103242       4.55091852      -0.05398103       0.01008454      -0.00073120
Ar      15.81240320      13.06037452       1.00460013       0.06955347      -0.06066370       0.09056681
Ar      13.75492221      11.86412972       3.86802527      -0.02949045       0.01415132      -0.00843196
Ar       4.51533262      15.72958836       7.44911350       0.04973540      -0.01443141       0.08286537
Ar       7.30884749       1.82734181      15.33769790      -0.04066679      -0.09209077       0.01473168
Ar       0.26599476       6.94910634       0.98190826       0.00411390       0.01447628      -0.00607869
Ar       1.93448028      15.23480568      10.29316781       0.07380031       0.01273987      -0.05470210
Ar       4.45215348      12.33824287       6.68449031      -0.04967068       0.00469590       0.06990111
Ar      13.93714057      12.63903420      14.64627425       0.04043714      -0.05660531       0.02493387
Ar      15.21256303      17.09209892      12.83659432      -0.00966457       0.03039224       0.01130782
Ar      10.73382265      10.47780697      12.88524958      -0.05031495       0.10178790       0.02434013
Ar      10.58853235       9.88257387      17.03421696       0.11931895       0.05080246      -0.09112822
Ar       9.25588179       6.00706286      11.09753895      -0.06713226      -0.07258035      -0.04616182
Ar       8.26994170       8.41736732       2.18325312       0.04247272       0.02332373      -0.02582424
Ar       0.04961150      13.87754533      15.31212738       0.01353949      -0.01393291      -0.00098266
Ar       7.24818093      16.09131509      13.85886800      -0.04659301       0.05629412      -0.01415286
Ar      16.11805300      13.75878005      11.68248909       0.03398638      -0.01722453       0.05124942
Ar      13.42586833      17.12206109       5.99905844      -0.03265972       0.01582750      -0.01619327
Ar       6.14018808       7.10572365      13.16818197      -0.01943144       0.00490791      -0.00263052
Ar       8.26732468       1.63667260       3.92570299      -0.03083413      -0.03858427      -0.00800718
Ar      13.14117873       8.41436301      14.95829875       0.00596815       0.01927666      -0.00604210
Ar      16.82582474       2.46805834      16.01944543       0.00158322      -0.01081695      -0.11259677
Ar      14.54293310       3.37507788      12.32556915      -0.02889722      -0.04892573      -0.00394550
Ar       7.36648160      13.83012054      16.87130095       0.04119347       0.02156099      -0.06113283
Ar       1.85321189      11.78529647       9.65673430       0.01429200      -0.04157932      -0.06279668
Ar       7.26153346      12.17372308      13.80702119       0.01486505       0.00346394      -0.07538143
Ar       9.65205191       2.11194262      11.79654550      -0.00258501      -0.01200843       0.02552114
Ar       7.91618908      15.26174780       6.97154931      -0.06673028       0.08620478       0.00496010
Ar      14.95173510      11.69089231       7.20788118       0.03644202      -0.00068847       0.07303701
Ar      12.06323201       3.73099375       9.82538433      -0.01595907      -0.00138298      -0.03431466
