108
Lattice="17.35 0.0 0.0 0.0 17.35 0.0 0.0 0.0 17.35" Properties=species:S:1:pos:R:3:momenta:R:3 pbc="T T T"
Ar       9.32473678      15.06095846       3.47249745      -0.02985300       0.02996440      -0.05366730
Ar      10.54587034      10.09556432      11.10321291       0.04111407      -0.01696432      -0.00085214
Ar      10.94805659       2.13713474       3.17061975       0.00282568       0.00854698       0.06742599
Ar       0.31843625       6.68425716       3.95922509      -0.02546014      -0.07329386      -0.00844672
Ar       5.57367035       5.08766854       8.61871059       0.05165916       0.06697802      -0.00779222
Ar       6.10456531      13.54725823       3.48633364      -0.01960293       0.05273609       0.03267978
Ar      12.63241552       4.51954461       7.58549478       0.05719315      -0.05076715      -0.12440154
Ar      11.12123116       9.43904280       7.31337026       0.07599778       0.00448446       0.11982752
Ar       8.29197121      14.83325165      10.68307216      -0.02113504      -0.00925691      -0.00684617
Ar      13.68959014       3.29632742      16.74800771       0.00147535      -0.03472270      -0.04174395
Ar       0.51975099       9.15530583      11.69697614       0.10338081      -0.01155227       0.07391391
Ar       1.70466061       2.50982663       8.91031094      -0.06287822      -0.00392106       0.00935954
Ar      10.29736296       3.69826292      17.12517634      -0.12857325       0.01593585       0.12163854
Ar      10.27182497      12.84400057      13.18928911       0.06940547      -0.05089446       0.05688517
Ar       3.12418016      15.15266645      17.05384088       0.02624909      -0.03204605       0.10296471
Ar       2.88533479       4.70395845       5.56877913      -0.02734976      -0.07348965       0.07339122
Ar      14.88491755       8.55151878       6.19724656      -0.04749065       0.04465905      -0.02421151
Ar      11.50829253      13.46636808       0.10634963       0.09597436       0.03331672       0.05759565
Ar      10.02023418       1.02111146       6.94347137       0.06521708      -0.00972547       0.07318611
Ar       4.97101470       8.00547522      17.22645089       0.01843254      -0.09779994       0.03154444
Ar      13.78591816       5.10556565       4.09913597       0.06143631       0.00326223      -0.03092654
Ar      15.73041947       1.03948371       9.36089399       0.01169267      -0.03254090      -0.07893800
Ar       6.26044990       3.72993794       5.26727544       0.02819991      -0.02917838       0.01971230
Ar       6.47835870       5.10473367      15.41231769      -0.01777260       0.08101158       0.01080424
Ar       0.84083395       3.93612695       2.30812005       0.05191756       0.02617145      -0.06932343
Ar       7.12912001       0.73512203      17.26995083      -0.05510065       0.04518625      -0.05068989
Ar       5.40051838       3.10938060      12.37329278      -0.04192498       0.09326074      -0.06037097
Ar      11.71770772      16.56070381       9.79909075       0.05985750       0.02984099      -0.02763120
Ar       2.07054916       9.83067359      15.22790967       0.03342445      -0.01351595       0.09639319
Ar      16.06821813      15.67834745       4.61545960       0.05696539      -0.00161767      -0.03184639
Ar       7.08878908       3.69804187       1.76426658      -0.00692566      -0.05009203      -0.10700834
Ar       8.66976131       3.91719631       8.67285553      -0.03250143      -0.10299730      -0.02927011
Ar       1.40871016       8.42226676       6.79418043       0.02626715      -0.07911192      -0.02880838
Ar       5.10284377      11.18525048      10.89646497       0.02589268      -0.02538952       0.01047438
Ar       0.82234920      16.75788086      13.14947451       0.00141165      -0.06062589      -0.01510899
Ar      15.96895977       6.50830498      16.39659956      -0.00241867      -0.08802477       0.02214387
Ar       2.75593259       6.52154159      14.68203708      -0.00011277       0.03178472      -0.14840657
Ar       3.53082288       0.31009243       2.18385219       0.06610373       0.03306943       0.10114224
Ar       1.28223552       2.99617604      13.26111887      -0.07756850       0.04500462       0.03066466
Ar      15.49764757      15.06851536       8.09605834       0.03196363       0.05838334      -0.00688032
Ar       4.82627909       8.61223537       7.82606605       0.08389881      -0.03990129      -0.09730482
Ar      13.16957787       8.18377969      13.90442014      -0.00878873      -0.11991513      -0.01929963
Ar      16.40847148       5.65850958      12.43811228       0.02145989       0.01409810       0.02953502
Ar       3.98583297       5.75215934       2.31247678       0.02455169       0.01838146       0.07758216
Ar       3.28545726       2.98551186      16.88171649       0.00894543      -0.10751138       0.02577438
Ar      16.00039208      10.50276314      15.97088848      -0.03968538      -0.00956739      -0.10685218
Ar       3.71253091      13.06966953      13.75857599      -0.02185845       0.07448807       0.02179474
Ar       1.46379107       0.36596653       5.42744600      -0.01280414      -0.01383597       0.07342763
Ar      10.34661157      16.46799375      14.01476669      -0.00626536      -0.06727797      -0.02943837
Ar       2.81703816       5.30714392      10.73006852      -0.05171776      -0.00019785      -0.02402240
Ar       9.42927036       7.81405212      14.55151817      -0.02565089       0.01192264       0.01035498
Ar       8.24422818       8.52058996       8.80910983       0.03496493       0.02025473      -0.05600545
Ar      13.08215355      15.92488734       2.91096053      -0.04196833       0.11410654      -0.00155954
Ar       4.60538253      15.57913472      11.04324898       0.06364413       0.08058249      -0.07878829
Ar       1.11144381      13.44255079       6.76315320      -0.00433925       0.08532145      -0.05579742
Ar      11.72689722      15.25925651       6.09249360       0.01351001       0.05218686       0.01984718
Ar       1.53055874      11.83014546       1.36114763      -0.08320558       0.06526805      -0.03289621
Ar      10.69978176       9.41344679       3.23000093      -0.05452306       0.01526348      -0.10409607
Ar      12.29281213       6.58986105       0.45548411      -0.05037440       0.11665663       0.00227384
Ar       7.65501044      12.05182722       8.70060888       0.09361271       0.08388340       0.04986003
Ar      17.09631262      16.16790405       1.02138160       0.00494582      -0.08072628       0.02240411
Ar      12.56722797      12.78924104       9.31925451      -0.03588357       0.00555160       0.07442908
Ar      10.82808750      17.29743534       0.05081970       0.05412723       0.03062129       0.05475966
Ar      10.05978263       5.29550776       3.99492181       0.05706172      -0.03903998       0.06217204
Ar      16.84755075      11.07833736       4.36594989      -0.10529407      -0.09114285      -0.01675894
Ar       2.41185900      14.83529505       3.50838369      -0.03992963       0.02415331      -0.05413443
Ar       5.00028353      11.83792945       0.15063160      -0.00924789      -0.03843362      -0.00232304
Ar      11.82798881       6.71588076      10.38416245      -0.02789041      -0.03264403      -0.03216594
Ar      15.21725289       1.60726010       2.85837335      -0.00335980      -0.05620316       0.07001431
Ar       4.29667063       0.07873904      14.62927248       0.00265778       0.05129492      -0.06169862
Ar       6.06094320       1.08585534       8.38721555      -0.04436559      -0.00408244      -0.07632979
Ar      16.58449105       5.39169007       8.77095390      -0.01530607       0.03020876       0.01068114
Ar      14.96325162       8.60919197       2.22574192       0.02658545       0.01922409      -0.08663433
Ar      16.55376194       3.32925886       5.46226683      -0.02595827      -0.01907750      -0.03909817
Ar       6.97057725      10.27353334       5.26021720      -0.03647762      -0.08541859       0.02329355
Ar      14.81204230       8.40690198       9.83413631      -0.11268540       0.06341783      -0.01880467
Ar      11.86010679       4.48456623      14.15274983      -0.04796408       0.00805188      -0.01568970
Ar      14.25869341      16.84839465      16.54996742       0.04047659       0.00605616      -0.03397231
Ar       3.14872875       9.40792489       3.19231535      -0.03032366       0.00197509      -0.04899543
Ar      15.39243315      12.87972125       1.63025979       0.06618937       0.04447270       0.00743596
Ar      13.34798488      11.79320175       4.67183284      -0.03222000      -0.10202925      -0.10102949
Ar       4.53181313      15.56772253       6.53351037      -0.00698506       0.05667402       0.03640087
Ar       8.46574920       2.10326067      14.45078106       0.08436718       0.02258919       0.15086237
Ar       1.41954641       7.74299097       0.71609866       0.00035223      -0.00938485       0.00844426
Ar       1.46900823      16.40588228       9.38798862      -0.01727415       0.05151321       0.06855673
Ar       4.30091174      11.95182814       6.47007236      -0.04748997      -0.04389110       0.03632192
Ar      13.99976767      13.48718232      15.04451523      -0.02024122      -0.02832142       0.00383018
Ar      14.32816868      15.61391757      11.98766788      -0.00175176       0.03965612       0.04666850
Ar      14.26514365      11.24161244      12.20548658      -0.08864029      -0.05014870       0.00061241
Ar       8.30712986      10.76583765       0.23507729      -0.02175723      -0.13632139      -0.02942102
Ar       8.52599925       5.34333796      12.08748674      -0.03595934      -0.08914093       0.04263505
Ar       8.29356599       7.42723295       0.71319443       0.00739412      -0.02973831      -0.01884228
Ar       0.16917966      13.57389999      15.75823323      -0.04164934      -0.04186636      -0.05865145
Ar       7.15543605      14.44687164      14.17274134       0.03670318      -0.03771098       0.04239199
Ar      -0.00200298      13.40716593      11.69729731      -0.08323796       0.01913338       0.07978838
Ar      13.59675194       1.17937113       6.24762291       0.08410969      -0.05708340      -0.09448147
Ar       5.75307836       7.62044761      11.26633983       0.03727039       0.07662647      -0.03141959
Ar       6.65008614       0.35350289       4.31602245      -0.01923150       0.04055237       0.02284286
Ar      12.75866936      10.09234005      16.87029438      -0.05756318       0.05746439      -0.03602734
Ar      17.19693405       2.55191487      16.33284429      -0.00358446       0.05587800       0.03343410
Ar      15.11089279       1.52017963      13.46491601      -0.00755867       0.11101658      -0.03797200
Ar       7.77709709      14.32531300       0.27833545       0.00846017      -0.04804513       0.06562491
Ar       2.08553409      11.24103683       9.11324516       0.00778013       0.05262633       0.12210339
Ar       6.86415328      10.50410127      14.15557927       0.06763915       0.01763319       0.03687104
Ar       8.55854191       1.16978999      11.08876905       0.07052331       0.04076351      -0.01985548
Ar       7.90856857      15.63036746       7.08690799      -0.06782794      -0.03793007      -0.02690764
Ar      15.70374621      11.42051808       7.70604199      -0.02416633       0.01757049      -0.09624550
Ar      12.66516477       2.51099475      10.92758886       0.04438579       0.06337979       0.05191342
