108
Lattice="17.35 0.0 0.0 0.0 17.35 0.0 0.0 0.0 17.35" Properties=species:S:1:pos:R:3:momenta:R:3 pbc="T T T"
Ar       9.35596648      12.47597586       1.94041129       0.01483747       0.05044385      -0.00238605
Ar       8.40502327       9.73190625      10.19622189       0.01116886       0.06075210      -0.06404717
Ar      11.25205329       3.08747242       3.88721286       0.00525991      -0.00335229       0.00310104
Ar       0.49325059       6.35152044       4.23666895      -0.05339542       0.12317570       0.06055794
Ar       4.51942411       5.85326624       9.82776632       0.10987588       0.01125605       0.01376797
Ar       5.77801560      12.19798707       3.27301790      -0.06833199      -0.06066281       0.01251586
Ar      12.99797760       5.04386661       6.53039968       0.01686261      -0.09159899      -0.00338515
Ar       9.19281328      10.53070641       5.28842557      -0.01522025      -0.08474074      -0.03098147
Ar       9.56295594      15.89270874      11.83460262       0.19869040      -0.00768611       0.12986918
Ar      13.87657523       2.19244274       1.09708129      -0.04638175       0.02705821       0.03608742
Ar       2.64038290       8.11699755      12.54722074       0.01237422       0.04354890      -0.04024431
Ar       3.16716238       1.90435885       7.21346042       0.01522349       0.06291222      -0.02936024
Ar       9.39983454       4.47090115       1.12488040      -0.08129153       0.04554577       0.12327888
Ar      10.68468779      13.41801568      15.18117604      -0.02277540       0.00530734       0.07989317
Ar       3.29305461      13.47191736       0.68968869      -0.00284471      -0.03281549       0.02241550
Ar       3.88580408       5.57646234       5.81628157      -0.02145116      -0.03150602       0.03234119
Ar      12.93671818       8.92304449       5.93987841       0.00483130      -0.00318038       0.04241556
Ar      12.70342740      12.84899204       0.41382523       0.04169932       0.02938822      -0.04750877
Ar       9.84011062       1.15841242       7.09447247      -0.08838843       0.07866950      -0.04965136
Ar       3.41000705       6.21128806      15.68835020      -0.03667727      -0.02694467      -0.00710243
Ar      14.35429357       6.07590497       2.45285502       0.02676412       0.02495266      -0.07751821
Ar      17.03946734       1.12225014       9.98005466       0.09434506      -0.07424018       0.06082194
Ar       7.26423003       5.62330900       3.85790587       0.08033204       0.02457088      -0.07154775
Ar       6.61231742       6.10049450       0.05046938       0.01893505       0.04746117       0.02567242
Ar       0.42447968       3.97080889       1.34725685      -0.03413594      -0.00296739       0.03485433
Ar       5.33020916      17.03434102       1.14110067       0.00502076       0.00729685      -0.04913055
Ar       4.84571153       3.62465637      13.22356435       0.05842099       0.03038176      -0.10578128
Ar      13.58999505       0.84145413      11.06460010       0.01323692       0.01636571       0.00441625
Ar       4.39677334      10.98413079      11.73448056      -0.05129769      -0.02956501      -0.05809779
Ar      15.91437470      14.79809089       4.49762010      -0.00122272       0.01123925      -0.00459414
Ar       3.70725047       2.77330952       3.03923500      -0.12479174       0.00532238       0.00580595
Ar       7.31464485       4.44434267       7.41119900      -0.03145411       0.02999320       0.03331503
Ar      16.69938603       8.14208318       7.94246865      -0.04000149      -0.06218065      -0.04687082
Ar       6.42236789      13.47029320       9.53458956       0.05524605      -0.06992728       0.00591329
Ar       1.80893451      16.19137435      16.05070326      -0.08630299      -0.02805564      -0.02145542
Ar      13.97231838       5.17495574      16.02342351      -0.04225622      -0.02852697      -0.07865841
Ar       0.87231554       4.45651523      13.98650736      -0.10648293      -0.10776592       0.05078470
Ar       3.45357844      16.58525277       4.03745858       0.06632829       0.04426205       0.03830225
Ar       2.48488526       0.76734374      13.01726699       0.03379672      -0.06855078       0.02420560
Ar      15.77811905      15.03598646       8.23175559       0.02700423      -0.06030184       0.02119320
Ar       4.97473813       9.02742509       8.22841660       0.03103883       0.03200619      -0.04351892
Ar      12.15995777       5.67829558      12.43777751      -0.01007285      -0.00905977       0.03110812
Ar      16.42093804       7.58948173      13.02645915       0.06242255      -0.05799254       0.02788345
Ar       3.01431331       7.34508392       1.77444766       0.06804070      -0.12771739      -0.00962295
Ar       3.32091365       2.60418593      16.79899317      -0.01225256      -0.04056298       0.03454948
Ar       1.55634815       9.84319625      15.27018636      -0.03604964       0.01152230       0.03294947
Ar       4.26558031      13.33867703      14.57207217      -0.02834625       0.01762625       0.00286124
Ar      17.35332043       0.34760629       5.71207095       0.05459265       0.06594099      -0.02480210
Ar      12.77781126      17.02247248      14.53879951      -0.05502919       0.01021222       0.05824948
Ar       1.30317300       4.92490365      10.29660087       0.09449525       0.01914065       0.00380195
Ar       9.23276074       6.42326036      14.68909956       0.03896348      -0.00858057       0.00220097
Ar       8.36504027       7.72879911       7.04718566      -0.09033273      -0.02245945      -0.00265354
Ar      12.91401364      16.97211900       3.43833449      -0.12863212       0.00034385       0.02034110
Ar       6.20000364       1.84173118       9.42797859      -0.05163323      -0.00671908      -0.06770620
Ar       1.43014470      13.65214926       7.41286135      -0.03373019       0.02093468       0.06964137
Ar      12.12206401      15.26570134       7.41289587       0.05220475       0.00446384       0.04510377
Ar       1.27181676      10.52944758       1.25899810      -0.03452602      -0.08133278      -0.01846819
Ar      12.25653152       9.73226935       2.70689504       0.08273994       0.02022493      -0.03998609
Ar      11.16896083       7.30092970       0.39891122      -0.04183082       0.01496098       0.01485816
Ar       9.98308841      12.93471559       9.90156021       0.00732596      -0.04852863       0.01306201
Ar       0.36525170       0.50262720       2.35524818       0.01770400       0.05144128       0.06562857
Ar      13.70647835      13.60235027      10.37309866       0.02724545       0.05953091       0.06243195
Ar      10.12740310       0.28605141       0.09779120       0.00195292       0.11743139      -0.11153391
Ar      10.82520300       6.94334356       4.09968097       0.05615839       0.05960087      -0.04590641
Ar      15.91352915       9.41936700       3.80752379      -0.02725605       0.05161954      -0.03555464
Ar       2.31477601      12.96990267       3.98296562      -0.01282426      -0.04837873       0.03522283
Ar       4.42386368       9.68177390      16.57056383       0.02418770      -0.03601624      -0.10393449
Ar      11.55740705       7.77258081       8.66255607      -0.00864578      -0.02332485       0.01928217
Ar      15.27497872       3.02931644       4.26717608       0.06837896       0.05387539      -0.02131892
Ar       5.42971682      16.34120043      12.50241060      -0.15150392      -0.04315399       0.01190325
Ar       6.31270682       0.84307567       5.38907786       0.04283756       0.07357602      -0.09687320
Ar      14.62222499       5.82774380       9.48435791       0.03331192      -0.04046477       0.03422653
Ar      15.28366330      10.56254970      16.84656837       0.03771556       0.04779848       0.02296724
Ar      16.95868016       4.15708745       7.27440755      -0.04976748       0.03313133       0.07410138
Ar       5.48523391       9.02447561       4.49625367      -0.00392305      -0.07061946      -0.04353908
Ar      14.65676392       9.59162335      10.59193782      -0.10571470      -0.00558626       0.01812806
Ar      11.03405518       3.33334356      15.45532994       0.02259944      -0.07933907      -0.00916017
Ar      15.34263016      15.99767585      16.88632832      -0.03508120       0.10260329      -0.04672026
Ar       1.69496652       9.73484859       5.77842025      -0.00263060      -0.00939874      -0.05121716
Ar      16.76819314      13.67064847       1.57647780       0.05883518      -0.05970407      -0.05997166
Ar      12.65269086      12.72679740       5.04124051      -0.06695373      -0.01479038       0.03734995
Ar       4.55373217      15.94003174       7.63304321       0.00592674       0.04292535       0.00914357
Ar       7.36835695       2.59794118      16.27043931      -0.01186101       0.03139555      -0.11351850
Ar      17.19954909       7.38890324      17.06018142       0.01201647      -0.13404618      -0.02841063
Ar       2.04084713      15.29087149      10.57448309       0.00778694      -0.07942970      -0.07244140
Ar       4.52426179      12.10235581       6.74685175      -0.03226341       0.05355474       0.03723551
Ar      14.04780961      12.52583868      13.88579666       0.03517226      -0.01497827      -0.01710359
Ar      16.63615466      15.76763986      13.04302606       0.02787157       0.04724687      -0.09321381
Ar      10.99353094       9.44446936      12.21421855       0.03387258      -0.03843782       0.01683159
Ar       9.64698559       9.63728249      15.46784876      -0.09638667       0.00683555      -0.12259653
Ar       8.28991731       5.36068487      11.24587757      -0.01709086       0.04401009       0.04550193
Ar       8.02056801       8.88997375       1.73337134       0.00352154      -0.00067082       0.04771212
Ar       0.48930093      13.17660702      15.64688984       0.04122106       0.03951620       0.02910921
Ar       7.81564584      15.51255512      16.09169206      -0.01760512       0.01059202       0.08090484
Ar      17.14748515      12.33121218      11.45291131       0.02444238      -0.02222213      -0.04275265
Ar      13.49642592       1.51013692       7.33427299       0.03872495       0.04039780       0.04050268
Ar       6.63497790       8.51877034      13.05432378       0.05482211       0.11321959       0.04671745
Ar       9.21056768      16.83422772       3.60862319       0.09035782       0.00040813       0.04995840
Ar      13.14022510       8.42019786      14.73936874       0.06541146       0.00956495       0.01515568
Ar      15.85274271       1.73802660      15.29742634       0.01868892      -0.01040586       0.04203667
Ar      14.98918960       3.66805721      12.18643465       0.05798881       0.05735246      -0.04105910
Ar       7.07037484      12.08358352      16.53217555       0.01199379      -0.04972543       0.00885738
Ar       2.08244550      10.66257200       9.30589840       0.08553606      -0.02464909       0.00306406
Ar       7.78253371      12.06334269      12.95544288      -0.10198338      -0.00621387       0.00304412
Ar       9.11530323       2.28484671      12.64935680       0.00053973      -0.01170956       0.02143854
Ar       7.63329383      14.90123196       6.30179925       0.00725534      -0.03425841       0.09399176
Ar      15.81179443      11.50470543       6.83200624      -0.09122373      -0.04644362      -0.04974248
Ar      11.28959760       3.81668030       9.50724379      -0.10630106       0.03658122       0.01106119
