108
Lattice="17.35 0.0 0.0 0.0 17.35 0.0 0.0 0.0 17.35" Properties=species:S:1:pos:R:3:momenta:R:3 pbc="T T T"
Ar      10.45430414      14.26545443       6.95453608      -0.03409667       0.10567464       0.15529358
Ar       8.24980041       8.41465051       9.79346226       0.04689060       0.11759410      -0.03015894
Ar      12.86110710       3.01674465       3.68406089       0.02632749      -0.03501277      -0.02891142
Ar      17.15631989       5.07250226      16.47802828      -0.01625104       0.01895598      -0.00114512
Ar       4.91655652       6.50804646      10.25222585       0.04084687       0.10270055      -0.02032071
Ar       8.37575841      13.27734548       3.75832614      -0.02352072      -0.03687691       0.05011396
Ar      11.57733656       3.50512468       7.79185452      -0.07947774       0.05835480      -0.04782863
Ar       6.74650614       7.36905818       6.47741410      -0.00856822       0.08141604       0.02220532
Ar       7.89476158      15.69233872       9.74613870       0.08077181      -0.03378660      -0.13582180
Ar      15.09171679       1.18809183      16.35938496      -0.06483941      -0.03515663       0.08907029
Ar       0.81934012       8.44184476      10.27327763       0.07169597      -0.03437358       0.06836781
Ar       0.37519936       5.17509182       7.96100242       0.02340722       0.01991870       0.02777878
Ar      12.92451846       3.90943771      17.28810198       0.02133354       0.09404659      -0.09032530
Ar      11.97013268      17.19284240       0.26978486      -0.01044873      -0.02401363       0.02986417
Ar       5.42572254      11.13904210       2.41818472       0.05970047       0.07014388       0.01143029
Ar       3.49526173       8.17689577       3.87406974       0.01934426       0.00364827      -0.05834167
Ar      10.84276688      10.94870640       9.63117220      -0.04950221       0.00702342       0.13441897
Ar      14.46444565      12.31860516       2.10506811      -0.03595579       0.02172674       0.01639436
Ar       4.50330529      16.81098584       8.81576138      -0.00771121       0.06166006      -0.11182366
Ar       6.04340278       6.25859163      16.58589214      -0.01391217       0.00067770       0.14375295
Ar      14.06182771       6.95511270       1.74748021      -0.09132616      -0.02253024      -0.00245985
Ar       1.97352474      15.28715877      11.17318672       0.04860887      -0.11828979       0.03371382
Ar      11.93988638       6.71260797       5.04359267       0.02232842      -0.01054674      -0.05401060
Ar       5.24898326       4.93985895       2.95811845       0.00747361      -0.03512540      -0.05742230
Ar       2.64865157       2.85481788      16.41801599      -0.03024615      -0.01226441       0.03428461
Ar       1.98272077      11.50404763      16.70816414       0.03810880      -0.01075841       0.00291537
Ar       1.47129941       5.02367290      12.14518419       0.02417697       0.00440894       0.00291944
Ar      12.30999330      14.26542274      10.12445356      -0.00331667       0.03327432       0.02830834
Ar       5.19132226       9.89442759       8.89884758       0.01204225       0.02287737       0.06487535
Ar      16.60910916      16.18324710       5.14731091      -0.01492633       0.03478268      -0.12439585
Ar       2.93870041       1.72381982       2.55451449      -0.03068384      -0.01228971       0.00943350
Ar       9.19489500       3.59953641       5.50121811       0.06030639      -0.07948518       0.00048042
Ar      14.99807959       7.47059770       6.59992422      -0.07760809       0.01531664      -0.08697935
Ar       4.80475553      13.50327725      10.06372933      -0.01523557      -0.02841952       0.08507498
Ar       4.09115312      15.88607203       0.39534043       0.03589789       0.02238498       0.06646857
Ar      15.78972368       3.58972535      13.45271158       0.04142689      -0.05545705       0.01858959
Ar       0.76908711       1.22063058      12.24396848       0.01199078      -0.01446964      -0.08422429
Ar       3.17568412      15.70642278       4.30428277      -0.02538600       0.00861500      -0.01357504
Ar       4.77181896       3.53873953      12.98174688       0.08221907       0.02530184       0.12756445
Ar      16.03885482      14.30522515      10.28545522       0.01435798      -0.01088622      -0.07893180
Ar       5.50288761      11.62221268       5.80888277      -0.08506801      -0.07430651      -0.04404502
Ar       9.81071824       4.98353444      15.69201281      -0.02668034      -0.03113568      -0.00175219
Ar       3.38455570       7.22803387      13.95824468      -0.00396801       0.06232993      -0.10605854
Ar       2.92072143       6.18820952       0.46457926       0.04980694      -0.03701615       0.01325944
Ar       6.05855344       2.46339828       0.49840058       0.00436361      -0.02622419      -0.03303606
Ar       2.70357680      10.66250100      12.40520236       0.07653361      -0.05079503       0.00731101
Ar       6.12923258      12.97277696      16.67714478       0.06479766      -0.01279254      -0.03173064
Ar       1.63329650       1.88254701       5.96844388       0.04885146      -0.05239109      -0.00389873
Ar      12.13695002       2.20276566      14.38684017       0.04883548      -0.08595704       0.08009766
Ar       0.19438426      17.34857241       8.86123575       0.05326928      -0.00261668       0.07680533
Ar       7.68082218       5.49515870      12.60768475      -0.00108890      -0.08964268       0.00503377
Ar       8.36041149       4.39378274       9.07099263      -0.03299493       0.00905024       0.06692477
Ar      14.38072859      16.39009468       2.43082660      -0.01887812      -0.02522138      -0.05253362
Ar       7.08341986       1.41289185      10.62098916      -0.05623124       0.00792483       0.03486682
Ar      16.32424562      12.64875577       6.90143155       0.00036152       0.14046402      -0.06025173
Ar       9.21878419       0.54435105       7.18848527       0.07041486       0.03727265      -0.07754107
Ar       7.40775250       8.08126285       2.84724333      -0.04105692      -0.07256825       0.11004728
Ar      11.13602622      13.69031304       0.92736134      -0.02626814      -0.01548407       0.04508334
Ar      10.40956839       6.16431017       1.92874509       0.11339813      -0.00720875       0.03983224
Ar       7.75253383      12.47843205       8.77694411       0.00210409       0.08671127      -0.03938333
Ar       0.20242981      16.37645507       1.20488697      -0.00209673       0.03607167       0.01158672
Ar       8.90491599      12.41862529      14.41916535       0.05313174      -0.03162966       0.01745589
Ar      10.25314086      16.37494347       3.29966709       0.01472483       0.02770040       0.05754631
Ar      13.04997436      10.41526558       6.58041087       0.01744762       0.01869381       0.08277837
Ar      15.37877908       9.69306920       3.81514123      -0.03106276      -0.00553956       0.00510403
Ar       2.07342639      11.97653938       4.19584166      -0.00465381       0.06011126       0.02469755
Ar       8.21552277      10.23692453       0.12202191      -0.01005496      -0.00071805       0.01445115
Ar       9.12498928      10.52646576       5.90906909      -0.01952211       0.09353763      -0.03723724
Ar      16.36437779       3.05794730       2.31309714       0.03449998      -0.07982787       0.02371114
Ar       4.32934257       0.31630766      14.38529371       0.01396826       0.00439412       0.02564128
Ar       3.16021109       2.71428372       9.57601571      -0.05847394      -0.08508137       0.01036826
Ar      11.66870609       7.71201404       8.95903651       0.06520753      -0.04300814       0.03872286
Ar      14.86329477      10.66185013      15.91412162      -0.05993229      -0.03693688      -0.02631072
Ar       1.35618605       5.34289884       3.74831235      -0.06224759      -0.06860510      -0.00808618
Ar       3.95119791       5.04741999       6.54210213       0.07963558       0.02998979      -0.05681981
Ar      13.52048174       7.99885106      12.15580791       0.03322388       0.04208829       0.02612174
Ar      13.12514475       7.11407069      15.36707314       0.02734565       0.03992949      -0.05225076
Ar      14.71352801      17.03862454      13.23594079       0.01531451       0.01275845      -0.05351672
Ar       1.32652279       8.97152757       6.62753272      -0.06265168      -0.02756786      -0.02708276
Ar      14.61216611      14.52966440      16.15310231      -0.04802790      -0.00456625       0.04590103
Ar      13.32747428      13.64866553       5.06405200      -0.02525714      -0.00346831      -0.14624860
Ar       2.17976450      14.72108684       7.64098607       0.06929024       0.02046659       0.00069075
Ar       9.83393502       2.63968513       1.49126780       0.07032332       0.01942256      -0.01400536
Ar      16.91666515       8.28512367       0.22407625      -0.15081240      -0.07094292       0.06911454
Ar       3.56072213      13.72205226      14.03488621      -0.07081228      -0.00274207       0.01700917
Ar       5.99020101       1.45630374       6.17319336       0.03984822      -0.01183652       0.11149134
Ar      12.47540511      13.31407443      13.64126208       0.05302372      -0.06289151      -0.00848886
Ar      16.80393215      12.01216745      13.00322060      -0.04302657       0.03710102       0.07412056
Ar       6.63347164      11.27979890      12.25180994       0.01810919       0.03122360       0.00726980
Ar       9.79692654       8.23986948      12.89914158       0.00463477      -0.02833087      -0.14405919
Ar      11.63247540       4.68787164      11.52296850      -0.05601799       0.05878992      -0.01500599
Ar      11.62174869       9.82634875       2.98108461      -0.03823541      -0.02277685       0.03210829
Ar       0.93398357      16.65836000      15.00826857       0.03343207       0.05563717      -0.01082567
Ar       8.17192879       2.11390031      14.02695629      -0.05751110       0.05614659      -0.02210308
Ar      16.73551649       7.15483253      13.52709982      -0.09268417      -0.00858753      -0.06541434
Ar      15.50501150       2.66847281       6.69004157      -0.03468430      -0.02009487      -0.04005737
Ar       4.90207929       9.90901280      15.64818114      -0.04310403      -0.05923289       0.05469065
Ar       6.79549866      17.09423202       2.71664502      -0.02742701       0.00944900       0.07480476
Ar      11.45854609      10.15815731      16.04400238       0.05902471      -0.05007797      -0.08091027
Ar      14.51732580       1.88617470       9.80966141      -0.01797754      -0.02236243      -0.04880527
Ar      14.63420212       5.64572821       9.39437932       0.08050626      -0.02127183      -0.00674169
Ar       8.10041165      16.23052500      16.00329824       0.00438325       0.02696745       0.03222175
Ar       1.72896299      11.44689034       9.08394730      -0.04871575      -0.00645869      -0.06089431
Ar       6.72158700      14.99488804      13.01684679       0.02184671       0.00246728       0.02101346
Ar      10.13363243      16.43918239      12.78257103      -0.07074645      -0.02204381      -0.05132984
Ar       6.45151786      14.93389972       6.24956311      -0.03827555      -0.04131844      -0.10701282
Ar      15.51920580      10.32514584       9.78431035       0.02355738      -0.04019439       0.03211026
Ar      13.00247626      17.10279552       7.18247479      -0.05521344       0.11401285      -0.05319812
