108
Lattice="17.35 0.0 0.0 0.0 17.35 0.0 0.0 0.0 17.35" Properties=species:S:1:pos:R:3:momenta:R:3 pbc="T T T"
Ar       8.17652545       2.88704547       7.15966092      -0.06374175      -0.08832246      -0.07698235
Ar       9.27460157       7.29607616      11.50608887       0.03977876       0.06247720      -0.00374986
Ar      11.86260671       3.69240554       5.33935151      -0.05890794      -0.01131252       0.00271518
Ar      15.69411310       6.92652465       4.95243646      -0.04026423       0.04366125       0.07007532
Ar       7.65881822       3.84307586      11.08770052      -0.07458178      -0.01925123      -0.01677850
Ar       3.55229554      13.88756666       4.81446891       0.00110052      -0.08552640       0.04154983
Ar      14.91848950       3.41690400       3.83143702       0.01931013       0.01831786      -0.03105909
Ar      13.72449014       5.51896857       7.73418152       0.02330535       0.00752323       0.02841790
Ar      10.07693372      17.15817710       6.21883723      -0.00502101      -0.04691870      -0.06329381
Ar      15.20503594       6.15485921       1.35480450       0.00853295       0.00520601      -0.04854147
Ar      13.59531246       9.28918306       7.54943717       0.03409494       0.07360767       0.07515904
Ar       2.70923168       2.66753318       8.37410248      -0.00036038       0.12207495      -0.02277734
Ar      11.75389316       5.63988117       1.48865986      -0.02762457       0.03714251      -0.01154766
Ar      10.10990135       7.56684622       7.87246851       0.02401182       0.00938390       0.03702123
Ar       8.00717717       2.28575560       2.50317657       0.02084465       0.02236470      -0.04974480
Ar       1.50701475       4.83009612       5.67811323       0.11288345      -0.04903060      -0.02808344
Ar      10.82959203      10.67968284       5.57783727       0.04979673      -0.04510941      -0.00669742
Ar      11.49601587       1.83900475       1.98261872      -0.04072393      -0.00950228       0.00543072
Ar       6.67966582       6.25968403       8.79462853       0.00095987      -0.00754497       0.07396042
Ar       1.12919802       6.46302405       2.33176843       0.08390509      -0.01800562       0.03479314
Ar      12.07320282       7.47987733       4.69479562      -0.16334364      -0.04269690       0.06413979
Ar      13.20919590      16.17498731      10.97294737       0.03234576      -0.11059239       0.00577230
Ar       4.74639195       3.28299128       5.43696441      -0.02888958      -0.01763408      -0.03714595
Ar       4.55127642       7.02834621       4.11246307       0.03327108      -0.03417753      -0.08735949
Ar       0.61037306       2.77226929       1.71738392       0.00609778      -0.04973627       0.00032389
Ar       7.87271022       0.11750296      17.07478693      -0.03213750      -0.05513353       0.01496225
Ar       5.22485984       1.41420204      13.37045750       0.10785612       0.03832634      -0.04285745
Ar      11.06916952       0.79986329      14.41248255       0.06196904      -0.00647635       0.03907033
Ar       0.61467811       0.88583312      15.98252335      -0.01145450       0.13633760       0.01788218
Ar      13.40286776       0.32125099       4.56985312      -0.06606949       0.07741340      -0.01982897
Ar       7.13404096       5.84676127       0.96910169      -0.09994652       0.07592871       0.07302466
Ar      11.08243188       4.32618887       9.51530901       0.10278627       0.03280107       0.03251280
Ar       6.49841888       9.23453673      10.05682613       0.01907292      -0.05206217       0.01229883
Ar       7.31900226       5.13037904      14.46445707       0.01972731       0.02485253       0.02315894
Ar       3.20513371      16.44055122      11.18316035      -0.00350714       0.01086545      -0.01709201
Ar       0.92485514       7.42146643      12.91553828       0.01878912       0.00913406       0.03154223
Ar       0.00512127       4.25575203      14.90396987      -0.09074724      -0.03285730      -0.02009872
Ar       3.37771497       0.07740103       2.52605468       0.01744723      -0.00478073      -0.00890698
Ar       3.97139310       5.49485685      11.27558328      -0.01907152       0.01255760      -0.02225753
Ar       9.80880741      17.15433995      10.61848174       0.00217021      -0.00079300      -0.04917986
Ar       3.30637678       7.22736857       7.95955946      -0.04488148      -0.01279634      -0.03865037
Ar      13.90493068       6.48804518      11.49369514       0.03372485      -0.00525786       0.05892669
Ar      14.91906121       2.19175800      12.58132979       0.06371165       0.06801814       0.01624745
Ar       7.78369975       5.36098146       4.76644873       0.08512532       0.01925084      -0.04492152
Ar       4.04729412       3.88405839       1.98977018      -0.01725703      -0.01621795       0.01900048
Ar      16.57778004       9.86848882      10.61760975       0.02160777       0.01433103       0.06606068
Ar       1.73284529      10.56781793      15.43559945       0.02662784      -0.02085473       0.05753226
Ar       1.89508163       2.83553872      12.05367231      -0.10930610      -0.04837769       0.03354216
Ar      11.54646778      10.76547503      14.98220082       0.09008058      -0.01250534      -0.05918486
Ar       0.10475439       6.33095884       8.90099462       0.08176906       0.01625944      -0.10896559
Ar      10.62713022       7.23227493      15.52317390       0.01039286      -0.02477718       0.05017281
Ar      11.21695031       4.54802853      13.08599687      -0.15742972       0.00007349      -0.04544880
Ar      17.00129474      11.32179621       1.10592547       0.01402387      -0.03219762       0.01702975
Ar       7.94873001      15.11918178       8.17803668       0.02645215      -0.13751780       0.01368578
Ar      17.06739034      12.62674718       7.02063485       0.00930151       0.01323998      -0.03114770
Ar      16.87767567      16.94437883       9.20728704      -0.02492868       0.06501018      -0.01828284
Ar       4.30663845       8.56058036       0.89093801       0.17751608       0.02265452       0.03903977
Ar      10.11022222      12.15654928       1.28533352      -0.02719776       0.09302146      -0.02884518
Ar      13.62124916      13.21203516      17.02966692      -0.10571287      -0.06179453      -0.03703136
Ar       7.34037134       8.31094684       5.81952210       0.02714630      -0.07395941       0.05299250
Ar      15.03752912      16.22556154       1.63733559      -0.01703828       0.06449914       0.00549026
Ar       8.77802774      14.33949377       4.06717434       0.12159170       0.02433812      -0.00267090
Ar       9.52119277       3.86547302      16.74194749      -0.04428834      -0.05622695       0.02609983
Ar      12.78257963       9.35811232       0.63373281       0.11020904       0.00100178      -0.06653477
Ar       3.89661887      10.71352982       6.47415827      -0.06876920      -0.01388098       0.01614416
Ar      15.13922688      15.12999402       6.52261476       0.00746675      -0.03991804      -0.01354555
Ar       2.87554946      12.97393235       1.07104502      -0.02866731       0.05315700       0.01860485
Ar      14.02703274      11.24566254       4.12320503       0.00334411       0.06004444      -0.04084517
Ar      16.86369161      17.32989349       4.66770411      -0.10607798       0.00294189      -0.01475317
Ar       9.32812476      13.70107764      15.25626660      -0.03602857       0.08044002       0.01698266
Ar       6.36079376      17.33007390       4.96052142      -0.03876190       0.04895731       0.03058716
Ar      11.65829975      14.59040245       7.98639553      -0.01474423       0.05415359       0.03811466
Ar       0.29514589      14.57213787      16.30491164      -0.02909826       0.04319128       0.04835607
Ar      15.81454178       2.66459951       7.07360092       0.01939064      -0.02874497      -0.06807100
Ar       6.31777613      11.08436782       2.57113990       0.00302038      -0.01601852      -0.02888110
Ar       9.41495574      10.88197785       8.99768750      -0.01229850       0.10067041       0.04285496
Ar      12.72468145      13.84810804      13.81461290      -0.04012176       0.04334202      -0.03078211
Ar      14.66826307       2.97329544      16.53900290       0.06208764       0.05682358       0.03032282
Ar       9.11342670       8.73689446       2.33855791       0.03129936      -0.13615163      -0.10185771
Ar      12.22532096      14.11407651       4.33094667       0.02302670      -0.01356127      -0.00632498
Ar      16.96488055      13.93350038       3.55501955      -0.03057698       0.02610036       0.03795936
Ar       2.66901118      16.75713058       6.57774992      -0.02662235      -0.10693029       0.10151945
Ar       7.05320290      15.55144226      12.38593100       0.04449871      -0.04221980      -0.09922577
Ar       0.61412234       7.66791232      16.49235694      -0.08639530       0.00552257      -0.02540317
Ar       6.31131752      12.75352834      10.51131713      -0.11707230       0.00361421       0.10113058
Ar       2.23798161       9.83054248       3.65150898       0.06970061       0.07014962       0.05215211
Ar      12.51523662       9.72502019      11.52581233      -0.04218431      -0.03660870      -0.00845454
Ar      15.94476656      13.00334819      13.19856002       0.08878643       0.05197032       0.04180288
Ar      14.49028421      12.82800708      10.14696617      -0.07132368      -0.01265509      -0.03402270
Ar       4.92050747      11.56054575      15.64744258      -0.01859919       0.12250007       0.03351869
Ar       3.63200586       5.45833447      15.80637024       0.03540461      -0.08096988       0.00943221
Ar       7.54306664       9.05581920      16.46631929       0.05555876      -0.02067390      -0.14661374
Ar      15.14993223      10.00618041      14.82388126       0.03197685       0.03330740      -0.01719307
Ar       2.55774746      13.18539938      13.34048978       0.00611344      -0.06846786      -0.03511532
Ar       2.50905828      13.73636923       9.16048976       0.00269208      -0.04199353       0.00513882
Ar      13.27506551       0.88565917       8.07061873      -0.03327900      -0.00565293       0.00242283
Ar       5.64801012       7.92488288      13.34317465      -0.01600383       0.01759693      -0.03403122
Ar       5.68162130      14.93143661       1.30203262      -0.02685436      -0.04963422       0.05512579
Ar      14.20973367      16.73834645      15.54530910       0.04994470       0.02139420       0.08817104
Ar       3.78170955      15.78691704      15.65789789      -0.04442459       0.02526783      -0.01425400
Ar      17.12366013      16.30774283      12.55765020      -0.02212746       0.02769233      -0.02935696
Ar      11.43470192      15.91968813       0.61877482       0.11394557      -0.05565169      -0.01832240
Ar       2.74827603      10.06173177      11.01145392       0.06515287       0.01255170       0.05856025
Ar       8.20423363      10.34303850      12.85928872      -0.05549332      -0.06309059       0.09741604
Ar       5.89551807       0.79652858       9.60178268      -0.05221739      -0.01335196      -0.12247253
Ar       7.20544204      12.02422652       6.27647895       0.06655303       0.03717506       0.00092080
Ar      10.11814399      13.36922098      11.48607736      -0.02363723      -0.03737131       0.01039419
Ar      14.17593183       6.13289435      15.12089053      -0.10348894      -0.04674327      -0.04207094
