108
Lattice="17.35 0.0 0.0 0.0 17.35 0.0 0.0 0.0 17.35" Properties=species:S:1:pos:R:3:momenta:R:3 pbc="T T T"
Ar       9.02378636       2.13811934       6.18490814      -0.01608543      -0.01972231      -0.03240670
Ar       9.49540827       7.11159126      12.48399297      -0.05425969      -0.09464518       0.01653742
Ar      12.30757875       3.38818731       5.89068470      -0.03075763      -0.10678000       0.00623760
Ar      17.04229356       7.98822413       4.81531836       0.04361232      -0.01531679      -0.07110757
Ar       6.94356871       3.43810491      10.90600163       0.06817719       0.07751755       0.06354704
Ar       3.51095500      13.25960075       4.81808500       0.08396222      -0.02615791      -0.01012166
Ar      15.09190661       4.58516666       3.97650683      -0.02815359       0.00576989       0.02479788
Ar      13.05778536       6.36361179       7.23625721       0.04552661      -0.02206394       0.02935658
Ar       9.94414721      15.36450372       6.96143935      -0.01855668       0.03671304      -0.02789656
Ar      15.23754549       5.42950676       0.58293412      -0.03219967       0.05599752      -0.01240266
Ar      14.56568930       9.45485592       7.32587385       0.11292842       0.00533666       0.05041381
Ar       2.34095276       3.19771999       8.52690556      -0.10462069       0.07881446       0.03348414
Ar      11.81997280       5.00448376       2.63140707       0.05245153       0.00324280      -0.03405542
Ar      10.51298607       8.01076075       9.08684179      -0.08439425      -0.01374286       0.01304880
Ar       7.64790621       1.15011905       2.92104193      -0.00242635       0.01166807       0.01126979
Ar       1.42618846       4.53914997       4.74172654       0.07117283       0.00697613       0.07520158
Ar      11.82219536      10.45787161       3.36517849      -0.00693244       0.05428959      -0.06391394
Ar      11.69970762       0.82250383       2.88531392      -0.03537323       0.01465692       0.04381757
Ar       7.62966152       6.00762416       7.21458755       0.08518150      -0.03934497      -0.05541589
Ar       1.10009828       6.40025975       1.78338116      -0.15632659      -0.00227535       0.05274811
Ar      13.63145933       7.65910366       3.94726025       0.02914447      -0.01150852      -0.10186272
Ar      14.22770684      16.48005186      11.61089303      -0.03948146       0.10126688       0.06166664
Ar       5.37962433       3.17138123       5.96121017       0.03732838      -0.02411475      -0.07490288
Ar       5.60096595       6.96115430       4.37819480      -0.02093030      -0.06615800       0.03809977
Ar      16.57583511       2.36756525       1.68091038       0.00351973       0.04389573       0.00035970
Ar       7.80593607      16.45941696      17.30419536       0.07853425       0.02470268       0.01519841
Ar       5.06657287       2.08867679      15.36391978       0.01125805      -0.06274682      -0.09632023
Ar      10.52356698      17.21467201      13.71138003      -0.03957848       0.01239641       0.08876568
Ar       1.71903440       2.02079449      16.25258879       0.08134543       0.03712013      -0.04510909
Ar      13.59729333      17.10663936       5.29523612       0.00912118      -0.03234067       0.07304702
Ar       5.33113570       6.14743469       0.58012681      -0.02883799      -0.04944237      -0.02470222
Ar       9.80364724       4.63501364       9.82874084       0.00306982      -0.05795396       0.06221958
Ar       6.73458243       8.79160823       9.13071814      -0.00810264       0.08462771       0.00075614
Ar       7.00545277       5.85717132      14.38918282       0.02005827       0.09235647      -0.06571547
Ar       3.59986455      17.08609056      11.56188811      -0.01120856      -0.00548898       0.05368747
Ar       0.54149957       6.67015373      12.17550021      -0.03455068      -0.00720961      -0.04759500
Ar      16.22313340       3.96254289      14.54032338       0.00006190      -0.06539913       0.03306253
Ar       2.54746709      16.73976953       3.70116414       0.11363881       0.02764185      -0.04492417
Ar       4.35082533       6.08460500      11.62485159      -0.07371524       0.04332793      -0.04764231
Ar      10.67002811       0.02475286       9.89049299      -0.08338967      -0.03908831      -0.06431372
Ar       3.58452226       6.26083790       7.25971395       0.05177775       0.02391389      -0.03548796
Ar      13.28585239       5.51266263      10.77390515      -0.04488598      -0.12811183      -0.02746504
Ar      12.95022364       2.23006098      12.51465354       0.00091065      -0.03283874      -0.02653177
Ar       8.04469607       4.96313743       2.43516067       0.01005280      -0.03468182       0.03580627
Ar       4.34610432       2.98357229       2.26353105       0.00556214      -0.02133642      -0.00099684
Ar      16.91352229      10.64774177      10.50782261       0.09341899       0.02295369      -0.02918208
Ar       1.81726182      11.68444251      14.95464557      -0.02249918       0.02858734       0.03690189
Ar       1.65016811       3.12154863      11.95190869      -0.07389721      -0.07093620       0.04949503
Ar      11.31118211      10.56206029      14.54993829      -0.01776589      -0.03712446      -0.04684557
Ar       0.27427696       7.87618057       8.08815333      -0.04692949      -0.02285888       0.05010986
Ar       9.81687989       6.04786602      16.59995688       0.06599478      -0.07908198       0.03780065
Ar       9.43689595       3.15548435      13.52293056      -0.07567472      -0.04865275      -0.01368319
Ar      17.11933452       9.75918651       1.08989936      -0.06759494      -0.00684201       0.07646416
Ar       7.18260118      15.16433148       9.43856143      -0.01778096      -0.04921268       0.03857173
Ar       0.79761457      11.18378360       7.28897541      -0.08274733       0.05978355       0.04800491
Ar       0.43217405       0.28276761       9.61883598       0.06604878      -0.00530291      -0.00189196
Ar       3.42717738       9.37993153      17.03009168      -0.04691358      -0.05129029       0.01646871
Ar       9.75116533      11.97056119       0.88506355      -0.01835039       0.04897323       0.02375689
Ar      14.45315024      12.23768179       0.08200279       0.03615869       0.05429690       0.00861223
Ar       8.63068841       9.48098564       5.74027979       0.00420546       0.08418194      -0.11196461
Ar      14.76281080      16.79864333       1.49245064      -0.09897138      -0.02648208      -0.06010131
Ar       9.06200776      15.34155129       3.29145748       0.02230839       0.08644243       0.09209046
Ar       8.45131277       2.81816515      17.12742758       0.05678282      -0.05839950      -0.00132228
Ar      12.92165633       9.08302510      17.33336129      -0.04285722      -0.00501906      -0.03717984
Ar       4.79137921      10.02139222       6.44225539      -0.11185141      -0.05712731      -0.05745700
Ar      16.50715726      15.09347785       7.23824403       0.09969292      -0.07125811      -0.00332361
Ar       2.57496104      12.41007037       1.26854517       0.01503564       0.04653250      -0.00821424
Ar      15.55280708      11.10954930       4.42341922      -0.01436650       0.00323018       0.00534323
Ar      17.19930307       0.97866209       5.33491201      -0.06432800       0.02829231       0.02824642
Ar       8.45038190      13.64779555      14.99302119      -0.04905934      -0.02290184       0.06616281
Ar       5.57725776      16.00252405       6.03155221       0.03904995       0.07911012       0.01451993
Ar      12.24205051      13.05227355       7.57888027       0.05350134       0.01171342       0.00952195
Ar      17.28787007      14.77444317      17.29317686      -0.10259234      -0.00172434       0.06000788
Ar      16.31264544       4.38691324       7.58862140       0.02456208       0.04828947       0.04445898
Ar       6.22356177      11.03137158       3.24808644       0.06616196      -0.02318311      -0.04923442
Ar       9.18115508      11.59636463       9.15930513       0.05306298       0.00472438       0.04661360
Ar      12.53691285      13.91192211      13.95863744       0.12281797      -0.04560876       0.00726923
Ar      12.70330688       2.77485319      16.90755757      -0.11926853      -0.01879123      -0.08439500
Ar       8.57710199       8.61710459       2.50531305      -0.09910170      -0.00393644       0.00862150
Ar      12.82994805      14.07353986       2.77585364       0.01074987      -0.13648842      -0.03504963
Ar      17.27970037      14.02138693       3.48119808       0.07854656      -0.00345184       0.01534639
Ar       2.95883296      15.33253805       8.27933595      -0.01855525       0.06655535      -0.05335140
Ar       7.10114052       0.27328044      12.28494160       0.03374370       0.01680892       0.01604541
Ar       0.61800999       7.68670358      15.37696436       0.03787908      -0.02186581      -0.10637595
Ar       4.68494279      12.34975543       8.96649599      -0.07438508      -0.03608646      -0.02382529
Ar       2.62065234       9.54484086       3.65532358      -0.02989668      -0.05300925       0.00307852
Ar      12.90873032      10.02543783      11.02634384      -0.00229905       0.01929547       0.06867812
Ar      16.16769767      13.72119808      14.00977904       0.03714864       0.04226127       0.00540890
Ar      14.61106885      13.12191221      10.87854867       0.12682095       0.05245488      -0.04775885
Ar       5.55270565      12.40463218      16.56310179      -0.03816760       0.02659832       0.09578198
Ar       2.91318960       5.21043119      15.00066205      -0.07760632       0.05925078       0.03345544
Ar       7.72236324       8.91102320      16.09739764      -0.00912968      -0.01023110       0.00818451
Ar      14.94423011      10.26771743      13.96256587      -0.02751794       0.05332260       0.06784738
Ar       3.94259692      14.37812407      13.60817852       0.07627977       0.00396220      -0.09161664
Ar       0.94058204      13.92646235      11.17348160       0.02912247       0.01492609       0.09196915
Ar      13.93660472       1.82567586       8.87896802       0.06328610       0.06899446      -0.02990888
Ar       4.82339249       9.84567459      13.42009507       0.03803005       0.03765773       0.05934722
Ar       5.84643662      14.30183064       2.17002298       0.00243014      -0.08693952       0.00161036
Ar      14.11870312      17.23041644      14.97353709      -0.01411756      -0.05984069      -0.04217304
Ar       3.58050875      16.28111292      16.98012552      -0.00617697       0.09066531      -0.03236463
Ar       0.12973334      17.19441061      13.38302942      -0.04895543       0.06796984      -0.01614088
Ar      11.47953646      15.99025049      17.08378626       0.00863731       0.03748145       0.02732706
Ar       2.93689642       9.33888798      10.12511186       0.04604557      -0.07546221      -0.04050128
Ar       8.40249225      10.47252702      12.29199308       0.12180164       0.08317335      -0.08157858
Ar       5.39184315       1.18547815       8.72446227       0.01782731      -0.01181104       0.05799603
Ar       7.35802703      12.95414133       6.19234295      -0.07577274      -0.00643893      -0.08079626
Ar       9.84128172      14.22246952      11.45512382      -0.10011285       0.04835239      -0.00480337
Ar      13.11750584       5.78136981      14.50833105       0.08446232      -0.05324572      -0.00231840
