108
Lattice="17.35 0.0 0.0 0.0 17.35 0.0 0.0 0.0 17.35" Properties=species:S:1:pos:R:3:momenta:R:3 pbc="T T T"
Ar       9.58978592      15.53913430       3.66289863       0.00457100       0.02799333      -0.04017709
Ar       9.37884689       9.22366756      11.48701544       0.04202674      -0.03482916       0.10251484
Ar      11.96841207       1.77500131       3.07151679      -0.04378794      -0.13308318      -0.03129204
Ar      16.89791840       7.03466342       3.07304579      -0.11602325      -0.11711355      -0.08821605
Ar       5.49102075       3.34459779       9.11940925      -0.04705396      -0.05840852      -0.19950861
Ar       5.97766923      14.36957807       2.87462097      -0.00156799      -0.05891415       0.00474685
Ar      14.04118425       6.00789534       7.40241991      -0.00633570       0.05936025       0.11432211
Ar      10.24137259       8.11001861       7.24841812       0.00190365       0.03002197      -0.09472123
Ar       8.97366414      14.02779642      11.33892251       0.01054903       0.04874798      -0.00113110
Ar      15.08673958       3.55531555       0.37756179      -0.02867291      -0.03191091       0.05657797
Ar      17.36082525       9.37768251      11.25467806       0.05770623       0.01098332      -0.01283273
Ar       2.23507001       1.29163720       8.06369790      -0.04263360       0.02665441       0.00411538
Ar      11.29724993       4.07965129       0.24920339      -0.07864813      -0.04216744      -0.02885409
Ar      10.13497661      11.46637961      14.22933965      -0.00246539       0.02799993      -0.04021651
Ar       3.03073292      16.52348830      17.33331481      -0.03999085      -0.00115503       0.02967665
Ar       2.23739428       5.47839587       7.41445369       0.01056073       0.05741291       0.00893087
Ar      13.84938685       9.22451147       5.54789122      -0.03795880      -0.06163658       0.08298077
Ar       8.99154551      13.62208406       0.39296765       0.01158152      -0.01437764       0.00884029
Ar       9.70464991       0.71318754       6.58252416       0.01376586       0.02014544       0.04841204
Ar       3.99595242       8.94781305       0.56030028       0.02531506       0.09840961      -0.05233482
Ar      14.54503806       3.91066274       3.95418137      -0.01334979      -0.05121752      -0.01996441
Ar      16.75297112       1.66882793      10.02879315      -0.03445841      -0.02460672      -0.02415538
Ar       5.60092390       3.62183614       4.99347884       0.00497251       0.00574038       0.10960589
Ar       5.39769669       6.04997058      15.90553665       0.10076519       0.03597207      -0.04752080
Ar       0.70061230       2.65775412       3.08300858       0.00771550      -0.00706104       0.08055063
Ar       5.72237101       2.65710242      16.95251955      -0.05229498      -0.06265386       0.02616603
Ar       5.07705760       3.67351964      13.29213077       0.05398298      -0.09923805       0.03212585
Ar      11.97663240      16.45367039       9.34984861       0.04800772      -0.02161032      -0.00254981
Ar       3.13835790      10.80828733      14.06528256       0.02902993       0.02836526       0.04578828
Ar      15.56659864      14.01754255       4.01903401      -0.06368139       0.03211515       0.07422119
Ar       8.53388446       3.65819625       2.72841549      -0.01763184       0.11388291       0.00441160
Ar       9.00251983       3.58709799       8.77401119      -0.05482301      -0.02980325      -0.01065618
Ar       2.83878301      10.10086139       6.72115785       0.00593146      -0.00326469      -0.04121709
Ar       6.04286231      11.11212916      12.52398753      -0.00230260      -0.01943660       0.02565728
Ar       1.29978301       0.42674475      13.38841623      -0.02166379      -0.06552357       0.05811042
Ar      15.20154204       7.04918962      15.60210198       0.01638432      -0.11278720       0.02927692
Ar       1.28157019       7.00621459      13.64014503       0.00891829      -0.02044307      -0.02028791
Ar       3.42361870       0.60745106       4.03198730       0.11422018       0.09687830      -0.04032756
Ar       2.30588655       4.89630023      11.17541403       0.06188026      -0.01785486      -0.05894037
Ar      15.93776093      15.67142028       7.74582402       0.10284770       0.03330369       0.06614130
Ar       6.24112463       7.86019282       7.90557206      -0.00070673       0.04893233       0.02744404
Ar      12.82285232       9.16943928      13.66991597       0.00800925      -0.06185540       0.00905311
Ar      15.19977870       6.01460754      11.07660100       0.02308357      -0.02350507       0.06728876
Ar       4.22278316       4.79372854       1.72471443       0.03649157       0.04191382      -0.04645990
Ar       2.60678059       3.88054433      15.88541232       0.00616176      -0.02765562      -0.12063435
Ar      16.40550548      11.00856972      13.98287515       0.00984264       0.09362586      -0.02367204
Ar       3.78923121      13.94019476      13.14628913      -0.02517018      -0.08181523      -0.01303068
Ar       0.00481536      16.91970117       4.81443377       0.01513712      -0.07451316      -0.04821439
Ar      11.66703070      15.75425880      13.58264442       0.02966274      -0.05740487      -0.10462362
Ar       2.74748626       8.02099217       9.53204180       0.03313732       0.09223074       0.06677011
Ar       9.51808658       7.52381679      14.60713998      -0.00637394       0.05605179       0.00848139
Ar       7.51762518       5.56682346      11.58112150      -0.02736370      -0.10681222      -0.00497110
Ar      12.83439492      15.68909671       0.24933825      -0.03974743       0.02874329       0.02443966
Ar       5.49890752      15.55653702      10.77617379       0.03002275       0.03592868      -0.02618065
Ar       0.81462118      13.09555945       7.89222990      -0.00000845       0.05686270       0.01464956
Ar      12.40013889      15.40028251       5.47865280       0.05276022      -0.07960246       0.01562466
Ar       1.30042228      11.72966032       0.79493050       0.02423457       0.00830553       0.01352097
Ar      10.39695821       8.50932556       3.63464508      -0.01836398      -0.00114454      -0.02415303
Ar      13.39308567       6.72586342       1.65254137       0.01316700       0.02751581      -0.01123615
Ar       7.32268187      11.45857779       9.08530865      -0.03723957       0.01833352       0.04737912
Ar      16.50091518      14.51929842       0.69312625      -0.00902526      -0.03345502      -0.06539811
Ar      10.40038094      12.22514301       7.26166353      -0.01192537       0.00586116      -0.01137915
Ar       9.40413735       0.40679231       0.75548979       0.04846145       0.03467987      -0.04711956
Ar      10.76382362       4.43890768       5.83527478      -0.04175690      -0.01797854       0.03303385
Ar       3.24951546       7.21030223       4.50629946       0.01251584       0.03217930      -0.08316809
Ar       1.92268549      14.32577775       3.46451315       0.01667535      -0.06381374       0.00471918
Ar       4.40819027      13.29473956      16.65760732      -0.08075891       0.00984313       0.06874576
Ar      11.64535276       6.08225986      11.09328792       0.05183443       0.02729253       0.05767557
Ar      15.03577514       0.15019259       2.18020467      -0.03135902       0.09745033      -0.03659034
Ar       5.08053080       0.16305687      14.17065473      -0.01665657      -0.05164557       0.04072757
Ar       5.36812021       0.27212280       7.25368905       0.09798623       0.04054241      -0.03251440
Ar      16.92016168       9.08890772       7.73733134      -0.09392210      -0.03519539      -0.01192885
Ar      15.30046118      10.02940729       0.52809511       0.00157494      -0.00753745       0.03458584
Ar      17.12053395       3.53555986       6.60317132      -0.11615510      -0.04962665       0.03607028
Ar       7.50015706      12.24163919       5.13134131       0.01734393       0.00818483       0.06393686
Ar      13.62412982       8.96578546       9.24941786       0.01491312       0.04233097       0.03558593
Ar      12.18353297       4.73623558      14.16451779       0.05869779      -0.10367524      -0.00426272
Ar      14.53226168       0.45500250      14.93014136       0.02016445       0.12268384       0.00031760
Ar       6.94367366       7.05367371       4.28838742      -0.06353150      -0.09251368      -0.05823986
Ar      11.73561421      12.14379739       3.83149172       0.06889039       0.01672476      -0.07487309
Ar       0.02347823      10.66286077       4.39359225      -0.09506176      -0.02911999       0.08358154
Ar       4.60690361      13.60587624       7.62594459      -0.03687368       0.08493168       0.02859274
Ar       9.25120528       0.62143111      14.42598142       0.02861195      -0.01504826      -0.08244436
Ar       1.07885855       7.34479357       0.10798184       0.13625007       0.08034926      -0.05640987
Ar       1.79639141      15.84944950      10.56606623      -0.00451082       0.01426734      -0.05561269
Ar       4.64825780      11.18394746       3.63142100       0.00554025       0.06215267       0.10432072
Ar      13.88661826      13.51560117      14.85254622      -0.00520973       0.09132605      -0.03249189
Ar      15.02911196      16.07027727      11.73370195      -0.07108533       0.00266343       0.00594886
Ar      12.34981156      12.70864352      10.35031113       0.01463966      -0.06305067       0.02041558
Ar       7.73111977      10.25908461       2.14791279      -0.10967477       0.05367154       0.00825400
Ar       8.53745650       4.31920866      14.78769650      -0.02849479       0.01480297      -0.00895990
Ar       8.32591462       7.20897257       0.79902229       0.00026467       0.02687363      -0.00857843
Ar       0.48998436      14.25748032      14.62155520      -0.04440983      -0.04466796       0.05232004
Ar       7.52431485      14.08301094      14.39757841      -0.00775027      -0.01291974      -0.05976358
Ar      16.72329126      13.06158039      11.17663407       0.05785577      -0.00161916      -0.02378875
Ar      13.39821763       2.26619105       7.14724481       0.01135478       0.02039925      -0.00778425
Ar       4.64022675       7.92999259      12.92931864      -0.02122705      -0.01043457       0.12313420
Ar       6.87505775       0.78935068       3.43298594       0.02863761       0.00952613      -0.01073646
Ar      11.83464969      10.03573502       0.07638194       0.01620155      -0.05211896      -0.05197361
Ar       0.34447117       1.29688285      16.76816894       0.04978884      -0.02385198      -0.01906307
Ar      15.98748594       3.47684189      13.59812306       0.07013263       0.06701714       0.05703425
Ar       6.60318076      16.25473105      17.30068672       0.05168973       0.06415010      -0.07400558
Ar       3.09566894      11.49673545      10.59573236       0.03735175      -0.01071000      -0.06647285
Ar       6.70308413       9.75572392      15.73728726      -0.06202997      -0.00977483       0.05533533
Ar       7.28917619       1.26383869      11.54126668      -0.07775895       0.02157729       0.05878050
Ar       8.02996225      15.07214099       7.53629043      -0.03404150      -0.02911224      -0.00516348
Ar      14.18764255      12.44312831       6.83664081      -0.03022578      -0.02746640      -0.04574618
Ar      12.53977542       1.93155694      11.22068426       0.02203967       0.07482894       0.03160812
