108
Lattice="17.35 0.0 0.0 0.0 17.35 0.0 0.0 0.0 17.35" Properties=species:S:1:pos:R:3:momenta:R:3 pbc="T T T"
Ar      10.28765599      17.20093872       5.06796230      -0.07948631      -0.02521832      -0.00623813
Ar       9.62788896       7.46682751      14.20872586       0.08309717      -0.04947867      -0.02543224
Ar      14.04520031       2.84838248       2.91102224      -0.02069884      -0.00687319       0.01157572
Ar       0.46987731       8.05542817       4.54205692       0.13189129       0.06439648      -0.09448696
Ar       6.21961578       3.95701734      10.99949737      -0.00938657       0.00136398       0.07486301
Ar       2.69394224      14.72046344       4.70655748       0.02097756       0.08122003       0.01725730
Ar      12.28983136       5.82122365       4.71597206      -0.12590447       0.03920455       0.00652790
Ar       9.52555188       7.33975232       8.12573062      -0.04124350       0.01473396      -0.01679976
Ar       9.12920967      14.56848472       7.57881165       0.02217372       0.05855695      -0.00076819
Ar      15.36617159       5.88065369       2.18222648       0.03330255      -0.05604066       0.09043122
Ar       0.83713332       9.60532903      10.00452124      -0.11699506      -0.07356008       0.02315771
Ar       3.98302941       3.32338258       8.15744985       0.01326009       0.02244049      -0.15102005
Ar      13.28137870       4.83032295      16.70846778      -0.00923818       0.11948247      -0.00166603
Ar      10.00691272       9.16417933      11.17980588       0.00937575       0.06896932       0.05767456
Ar       3.82680222      17.26800620       1.80642703      -0.04863699      -0.04543602      -0.06795083
Ar       2.06974278       4.61793010       5.34593218       0.10718459       0.01974662      -0.00638307
Ar      10.63963734       9.33111610       4.85949991      -0.00022949      -0.04260530       0.03955713
Ar      10.30486703      15.90838909       1.84730406       0.01246293      -0.01284116       0.00772716
Ar       9.53635452       4.06005484       3.49867534      -0.04172245       0.03214930       0.13112150
Ar       1.44163320       5.91173752       1.54457122       0.07154276       0.00060012       0.12193977
Ar      14.55236863       9.39399683       3.46688141       0.00399770      -0.02998469      -0.03533006
Ar      14.74250269      17.13941878      10.19540461       0.02718015       0.03648284       0.01405362
Ar       6.02356876       4.45193277       5.39877292      -0.00467286      -0.03793452       0.01390760
Ar       4.05764711       7.68863817       3.27837633      -0.02016313       0.02605729      -0.01989824
Ar      16.78839615       2.72871933       0.90062222      -0.03381194      -0.03925811      -0.03218798
Ar       6.14067534      16.34189108      16.59097398      -0.01704143      -0.08554866      -0.06266386
Ar       5.85712329       2.46254783      16.10303080       0.03938343       0.08158942       0.03157603
Ar      11.69963045       1.66440435      11.50175287      -0.04133910       0.00564173      -0.07711287
Ar       2.38507228       2.62292678      15.59150019      -0.00188188      -0.02216499      -0.01371555
Ar      14.01263742      16.39720913       3.56500244       0.03001431      -0.07638150       0.00095276
Ar       6.95500794       5.35476842       1.44447566       0.06858738       0.00586311       0.00050742
Ar       8.47942780       3.38741067       7.80506016       0.01017764      -0.02432995      -0.00934454
Ar       5.36208893       9.90748076      10.24484708       0.00093640      -0.03024450      -0.02686382
Ar       5.95544282       6.90427800      12.72262075       0.08923524       0.08611580      -0.08745567
Ar       4.24387359       0.23047936      13.28180219      -0.07480751      -0.04427648      -0.09354459
Ar      16.91885150       6.05799570      11.77101508       0.01810670       0.04226671      -0.02574814
Ar      16.10602535       3.63287728      14.32904603       0.00192021      -0.05857784      -0.10487752
Ar       3.19337909       1.12326456       4.95159408       0.00134120       0.08962436      -0.03523272
Ar       2.44105898       3.81624422      12.38441511      -0.02340723      -0.01461076       0.02633244
Ar      11.35760542      15.40808036      10.54764874       0.10635396      -0.07160795      -0.00853184
Ar       5.81700844       7.26202917       7.91471373      -0.05362129      -0.02529485      -0.06668711
Ar      13.39587722       7.98440272      10.93968659       0.07263191      -0.01509922       0.13655221
Ar      14.81458419       4.04381721       9.84933733      -0.04524139      -0.06558532      -0.09735280
Ar       7.46196686       1.41467513       2.14109671      -0.07433558       0.03736354       0.00777540
Ar       4.18965831       3.37295200       2.23250600      -0.05460154       0.13483240       0.00790504
Ar       0.61561330       6.62257802      15.53195963       0.01125314       0.01685165      -0.04351526
Ar       1.61170293      11.35490482      15.23955071      -0.00469297      -0.10300339      -0.07861640
Ar       0.72548795       2.07291760       9.07440833      -0.02732275      -0.02162483      -0.08599199
Ar       9.00374598      13.23921751      16.25801473       0.08507750       0.02546922       0.03232007
Ar       1.76044371       5.95375960       9.03646138      -0.02343357      -0.04715538       0.01445183
Ar       9.23802276       4.15290455      16.02323567       0.04031305       0.00578893       0.05723693
Ar       9.96066592       4.52506090      11.19945070      -0.06303952      -0.01721784      -0.08640285
Ar      16.29576462      13.28904950      16.72617546       0.06195920       0.00582658       0.09251437
Ar       9.13492572      12.67654717      11.02100791       0.00268678       0.08810998       0.00396564
Ar       2.21227590      12.72209198       8.09282951       0.03619309       0.01646289      -0.13862861
Ar      13.39689603       1.84957335       6.36581912       0.05319810      -0.04278949      -0.03343227
Ar       3.20843524       8.66306199      17.17958916       0.05547866       0.09038382       0.01932153
Ar      10.34825473      10.74072389       1.34796216      -0.00984993       0.06213802       0.08007225
Ar      12.56734267       9.39043446      15.82681834       0.06185079      -0.09770940      -0.02507723
Ar       8.21141306      10.86400511       8.03182421       0.03510147      -0.10701203       0.06674515
Ar      13.61183164      17.11913617      17.33299119      -0.04323927       0.03001466       0.00422671
Ar       8.90200446      12.11682761       4.40150846      -0.04238309       0.00788630      -0.03782082
Ar      11.08201421       1.64792988       1.00459333      -0.02623185      -0.06081567       0.03921917
Ar      10.43654033       6.75020593       1.20506286       0.01807411      -0.09905122      -0.00492533
Ar       3.30207316       9.64310288       6.41312548       0.00301124      -0.00428830      -0.14400689
Ar      17.31001837      15.54028964       7.04471546      -0.00788479       0.09757283       0.10256066
Ar       2.90889095      13.54424414       1.16454444       0.03520978      -0.01778163      -0.09223469
Ar      13.38768029       8.71128960       6.97787604       0.03115764      -0.02554183       0.08113846
Ar      17.17518622       1.83032028       5.43402172       0.03128797      -0.11467424       0.02720558
Ar       7.80892487      15.73695324      12.88107561      -0.07800638       0.01581485       0.03677389
Ar       6.47208165      16.88391405       6.05938240      -0.09406658       0.01367069      -0.00265443
Ar      16.01637422      12.05210795       6.93756579      -0.04048797      -0.01735380       0.02675299
Ar       0.18287158      16.27344869       2.68789179       0.07714517      -0.09329772       0.03424108
Ar      15.58980009       5.02644209       6.34530561       0.00748440       0.04845817      -0.03111834
Ar       5.83244339      10.91496891       3.04025403      -0.03100267       0.02793096       0.06386200
Ar      11.90293194      11.44510693       8.89251845       0.04434132      -0.02374183      -0.03576061
Ar      13.44668353      16.24288697      13.49103224      -0.05302077       0.10270527      -0.00741953
Ar      16.67966385       0.01345628      15.82084397      -0.03743734      -0.01087858       0.06551497
Ar       7.46791936       7.79289499       4.45092389      -0.00604734      -0.00015564       0.04251675
Ar      13.04111458      12.01280803       5.45403952       0.01613403      -0.04967084      -0.02809277
Ar      15.89694269      12.70852821       2.98929793      -0.00545959       0.01345311       0.09971498
Ar       3.38281646      16.67459778       8.17447767       0.01863490      -0.01532349       0.02853993
Ar       8.31704013       2.04529480      13.39903964       0.00088603      -0.03832945       0.00228846
Ar      17.15869292       9.73471228       0.60878757      -0.10124599      -0.05455223       0.12997267
Ar       5.82197054      14.11639037       9.91515301      -0.03062676       0.09258493       0.03680064
Ar       2.02499620      10.96007342       3.47460921       0.03418879      -0.04365976      -0.01561772
Ar      12.66758536      12.78833251      14.57587674       0.07844331      -0.01047412       0.13388178
Ar      16.30693503      13.58090054      13.21371993      -0.08684620       0.04913195       0.02124638
Ar      15.03999063      13.38353463      10.07780550       0.04764328       0.02255735      -0.01847755
Ar       5.43259003      11.69967250      16.71123661      -0.02991362      -0.00085429       0.03387721
Ar       4.19853281       5.71265502      15.73205776       0.05400767      -0.02477804       0.06187863
Ar       6.74111867       8.10536754      16.44220595       0.01472589       0.04040722      -0.00839103
Ar      16.42068138       9.11334508      13.59930919      -0.04302747      -0.00145220       0.03876655
Ar       4.73932593      13.73499832      13.97850719       0.06824233      -0.05125270       0.04491517
Ar       1.37885067      15.34743755      10.77890141      -0.05397341       0.04463764       0.05184672
Ar      11.77555645       4.33923940       7.93215311       0.03713983       0.04820894       0.00103117
Ar       2.97134656       8.12157517      13.47362655       0.01785864       0.02759880      -0.01065947
Ar       6.08507307      14.62778862       2.56615961      -0.04985652       0.05861902      -0.06446075
Ar      12.88482592      13.27405790       1.24863510      -0.09052559      -0.01173682      -0.11756582
Ar       1.91902712      15.13558823      15.15325939       0.03392353       0.07250017      -0.08860099
Ar       0.28995089       0.74735045      12.46411908      -0.05601067       0.02829377      -0.06508108
Ar       9.85229807      16.82287794      15.71836322       0.01794992       0.02853524      -0.10310469
Ar       2.75297023      12.07977380      11.77281360       0.02656957      -0.02867795      -0.02774738
Ar       7.55135246      10.23872844      13.56944657      -0.11938212       0.02575120       0.05503036
Ar       7.80192593       0.60172340      10.10555799      -0.01599071      -0.02489405       0.08952079
Ar       5.56026335      13.13200700       6.31056309       0.01454682      -0.06510304       0.03761876
Ar      13.13012695      15.45556355       7.01131373       0.01909907       0.02526473      -0.05491285
Ar      13.22170900       5.09938034      12.92174408       0.04352046      -0.02352583       0.03864417
