108
Lattice="17.35 0.0 0.0 0.0 17.35 0.0 0.0 0.0 17.35" Properties=species:S:1:pos:R:3:momenta:R:3 pbc="T T T"
Ar       9.15359317      11.78516919       4.97494478      -0.13052501       0.00014508      -0.00952490
Ar       8.93745900       7.12676270      10.04102686       0.00442340       0.06373946      -0.06375125
Ar      12.20847912       2.42982231       5.63595667      -0.11778761       0.01155627       0.01516543
Ar      15.81712274       7.90310849      17.25580293       0.04529335       0.05025956      -0.06446714
Ar       5.76450133       7.68508832       7.59860574       0.01291360      -0.05831820       0.10707882
Ar       5.56291522      13.78785631       3.67163169       0.02626509      -0.02584604      -0.01334189
Ar      14.39060715       4.41718025       7.86042578      -0.05605777      -0.04663309       0.04899815
Ar       9.12335919       7.95440660       5.85443874      -0.02958656      -0.01266144      -0.03763880
Ar       9.87736223      14.37577452       9.85510469      -0.00449611       0.00370749       0.00379811
Ar      14.38358490       1.84304209      16.21798531       0.02121018      -0.03300735      -0.01216728
Ar       0.26103405       6.98284667      10.58562592      -0.02719954      -0.03840217      -0.00653360
Ar       2.40924570       5.87931844       7.90582068       0.01479322      -0.06293167       0.08269923
Ar      11.99670368       2.49873901       1.56133165       0.13726110      -0.02324327      -0.03294725
Ar      12.54075644      15.31319446       0.47383086      -0.04930614       0.01542007      -0.03509886
Ar       2.68545683       9.47296129       2.15049968      -0.04919540       0.07906538      -0.04351271
Ar       3.63120965       7.16210751       4.76972207      -0.00280080       0.09162569       0.12709662
Ar      12.48300057      11.35943527       6.43966905       0.07358012       0.05903989      -0.05234977
Ar      13.26332137      13.84343809       3.86801313       0.11120085      -0.09206841       0.00579800
Ar       6.08115455      17.19758131       9.21047823      -0.06496825       0.07551654       0.09149457
Ar       5.63971513       7.32102409      16.62871385       0.03442652       0.00526163      -0.01685268
Ar      13.06897178       5.74003814       0.26816289       0.04635082      -0.00833823      -0.06014570
Ar       1.63764036      14.71215084      10.23072476       0.07241363      -0.06294172      -0.02789881
Ar      10.78882799       5.83042730       3.13295460      -0.05187633       0.00120299       0.02885667
Ar       7.05800888       6.24779999       2.20513778      -0.03042542      -0.04761625      -0.01459377
Ar       0.19220441       3.66976550      16.83301992      -0.04390924       0.00438976       0.03815603
Ar       2.54102446      13.53797438       1.32582651       0.06200104      -0.05783643      -0.06377238
Ar       3.14667888       5.11996391      11.21884291      -0.00232038      -0.05647623      -0.04556205
Ar      13.56730073      15.00424076      10.43318929      -0.01752745      -0.04287943      -0.04637146
Ar       5.36005719      10.13404204      10.61547160      -0.07435714      -0.01965109       0.15334757
Ar      16.90206069      14.80283090       4.43808208       0.07200321      -0.00120096      -0.07058292
Ar       2.20090537       2.41517056       2.77143393       0.05763459       0.05801702      -0.00213710
Ar       8.69709467       2.68362885       3.54612035       0.08270363       0.02789571       0.03943540
Ar      14.81997088       7.16887990       5.42477315      -0.03836644       0.00857455      -0.04413488
Ar       4.98091520      13.57586827       9.68587354       0.05800727      -0.03381689      -0.00279063
Ar       2.99418339       0.76949308      16.06856887       0.00368491       0.05076531       0.02680809
Ar      14.74535387       5.06442307      14.53780380       0.03783524       0.00156998       0.08771531
Ar       0.09115593       2.12388026      13.70473445       0.04223065      -0.07085945      -0.08600193
Ar       2.51420867      16.56494402       3.65350021      -0.06114507       0.00000159       0.03267336
Ar       5.05785878       2.39003484      13.55109253      -0.03701724       0.04110136       0.10731771
Ar      17.20506632      17.19979281       8.56854247      -0.06014398       0.04986110       0.00902079
Ar       4.47126999      11.30803480       7.05653207       0.01459224       0.02358850       0.05541839
Ar      11.48603304       7.78593874      13.19770900      -0.08209194      -0.03359520       0.02589823
Ar       2.76567303       6.09183753      14.79412155       0.11737828      -0.04425008      -0.03422263
Ar       2.56280580       5.92087661       1.34198575      -0.09722848      -0.17418864      -0.00798724
Ar       4.88171179       3.89011931      17.23622774       0.00521140      -0.03305376      -0.09884614
Ar       2.33772524       8.78998511      12.82910400      -0.04707845       0.00469582       0.01732286
Ar       4.70962630      14.43516817      15.63255165       0.12141514       0.03630513       0.05611723
Ar       2.29205376       1.62028832       6.59177188      -0.03364293       0.07486076      -0.02097654
Ar      11.06597583      16.95302606      14.72367661       0.01111391       0.02937129       0.03925355
Ar       2.83167591       1.28178511      10.98510799      -0.00897484      -0.03897954      -0.02256901
Ar       8.30451625       5.94593474      14.12045336      -0.04776127       0.03995100      -0.02773103
Ar       9.14149393       3.49281913       8.29774268       0.03338020       0.01115420       0.07656843
Ar      14.34996640       0.19526365       2.71261303      -0.01146959       0.05917488       0.05799685
Ar       7.23760844       4.06017311      11.36760140       0.01044750       0.02557817      -0.02791168
Ar      16.21797663      12.28448104       7.21285014       0.02949130       0.02371179       0.06149669
Ar       9.84060086       0.14167316       7.18203754      -0.00433220       0.04695228      -0.05333960
Ar       6.22303383       9.53290200       4.66996920       0.04800079      -0.00364692      -0.00634964
Ar      10.75175903      12.09927241       1.42648154       0.01624000       0.13031036       0.02927588
Ar       9.42297145       6.39623639      17.11832888       0.04088427      -0.04360047      -0.03975121
Ar       8.19466054      11.39584668       8.87397986      -0.07217319       0.00855041       0.00865759
Ar      17.34434828       0.22079622       0.00137693       0.04487689       0.03523095      -0.02920732
Ar      10.02575647      13.12232766      14.96464105       0.00252380       0.01602401      -0.08268381
Ar       9.75838179      16.62978276       2.89058451       0.02923344       0.00414036       0.04886500
Ar      12.38870124       9.37896725       3.48331557      -0.07546895       0.02836686      -0.01314584
Ar      16.48553809      10.39426606       3.43935579      -0.00139573      -0.03339358      -0.06788340
Ar       1.85712294      12.12082655       5.07193901      -0.00252137       0.01726138       0.03680219
Ar       5.90939596      11.07946101       0.53836806       0.04784314      -0.03879784       0.00520827
Ar      11.69664702       8.91175395       8.88994509      -0.07861991      -0.01818882      -0.05400400
Ar      15.59856215       3.58441511       2.17845575      -0.02474717      -0.01236368      -0.06829892
Ar       3.98622657      16.04430785      12.77905915       0.00982927       0.00835206      -0.04994214
Ar       4.73495529       3.19177939       8.62528216      -0.06533947      -0.00953191       0.01729789
Ar      14.16339442       6.41833475      11.02286646       0.04465138       0.06216579      -0.03443204
Ar      14.02772159      11.27109191       1.06313287      -0.01747380      -0.09346072       0.02375822
Ar       0.69648544       5.12311606       4.58790270       0.02267892       0.07666662      -0.00762454
Ar       5.87535278       4.66524669       5.42637714      -0.03966890      -0.02414797       0.02828081
Ar      13.00447426      11.55993805      10.66419216       0.02832430       0.04701784       0.06306375
Ar      11.13514237       3.76476764      15.14957147      -0.02540997       0.02361971       0.02070501
Ar      14.99282011      15.92114991      13.56222182      -0.08793497      -0.03738391      -0.11861178
Ar       0.83606684       8.77214217       5.83443202      -0.04392168       0.03129101       0.02535842
Ar      16.41219290      14.19109448       0.62686057      -0.06547685       0.02630110      -0.03762359
Ar      13.92734647      16.43149496       5.94922629       0.02407766      -0.07584364       0.02159793
Ar       3.19152178      15.05764720       7.01734378       0.02293323       0.02939830      -0.07084365
Ar       7.97642242       2.60185306      17.09727758       0.02323039      -0.00214516      -0.01146130
Ar      17.20051449      10.85582172      15.99014286       0.00648916       0.06508475      -0.06682937
Ar       2.92544578      12.34570211      13.23302666      -0.06223907       0.10347500       0.03627100
Ar       6.04407891       0.93512223       5.51750599      -0.01371938      -0.11970447       0.03590782
Ar      13.36435193      12.26271215      14.36245674       0.00557790      -0.07631024       0.09184233
Ar      16.21234702      12.40742846      11.95748743      -0.00360682       0.06631702       0.08332786
Ar       9.39592711      10.72583668      12.33124080      -0.04870726       0.13786907       0.00193617
Ar       8.79093365       9.90025433      16.10654791       0.06483965      -0.02884557       0.01713916
Ar      10.95024526       4.63821656      11.76505762      -0.00939514      -0.06236111      -0.02261944
Ar       9.13978246       8.96669660       2.42127483       0.00370202      -0.00810546       0.11463400
Ar       1.12325195      14.89231650      14.73115342      -0.07118432      -0.04429501      -0.00293425
Ar       7.30893806      16.73270896      15.16124568      -0.08885645       0.07324318      -0.00183272
Ar      14.96580870       9.06244816      13.06237061       0.09259117      -0.07665907      -0.01756102
Ar      16.06634877       1.87614760       5.87220991      -0.03594992      -0.08800592       0.01361896
Ar       5.54695968      10.67123924      14.38649981       0.04429838      -0.02576988       0.04130413
Ar       5.73381290       0.33582926       1.28859954       0.05143773       0.02405294      -0.01721143
Ar      12.44268195       8.78141661      16.34973147      -0.04301298       0.05163078       0.00113209
Ar      13.27812995       1.93738252      12.83406000      -0.00879018      -0.13184575       0.06445591
Ar      17.26443093       3.10621894       9.78181723       0.08099613      -0.00701275      -0.01780684
Ar       7.78467613      14.14733582       0.65160976       0.01103118      -0.03106307      -0.04952892
Ar       1.89325405      10.64679594       9.28890393       0.09297577       0.02710467      -0.04023514
Ar       6.95400735      13.59822615      12.87237501      -0.02765555      -0.01351093       0.00002048
Ar       9.00200349       0.55579124      11.55928190      -0.04903319      -0.00860701      -0.10605765
Ar       7.05999343      14.35414920       7.10291570       0.00328014       0.02323034      -0.00398131
Ar      15.39921975       9.30580331       8.91883556       0.05627720       0.07228284      -0.03981273
Ar      13.31552012       1.20469056       9.15211208       0.06580751      -0.02965119      -0.00195739
