108
Lattice="17.35 0.0 0.0 0.0 17.35 0.0 0.0 0.0 17.35" Properties=species:S:1:pos:R:3:momenta:R:3 pbc="T T T"
Ar       9.91174709      15.56315111       7.25945895       0.07188212      -0.11656821      -0.01351565
Ar       7.79712506       9.86600835      10.66602009       0.04010368       0.10208276      -0.02479235
Ar      13.05833595       2.36833939       3.58987425       0.07126683      -0.06060799      -0.05682039
Ar      16.00600085       5.60233489       0.50724604      -0.02178134       0.01903001       0.07803757
Ar       6.64304348       6.08949411       9.08673000       0.04923254       0.04609735      -0.00805311
Ar       6.71396072      12.89557735       3.37733775      -0.03848975       0.01036738       0.10102671
Ar      13.72421164       3.81802561       7.48504596      -0.00358878      -0.00078385      -0.07756770
Ar       7.20971869       8.77300753       6.70732763       0.10190120       0.02750876       0.12161283
Ar       7.65440934      17.19132137      10.14161675      -0.02894739       0.03773912       0.12800482
Ar      15.38836355      16.56483799      16.39785263      -0.02208368      -0.07895926       0.10646514
Ar       1.39082761       8.86633705       9.69671603      -0.03973784       0.08772748      -0.03298411
Ar      16.73800247       5.68974347       7.86385436      -0.06204874       0.01480919       0.09302384
Ar      12.69932900       2.95058324       0.19434635       0.06721940       0.06613018       0.04690443
Ar      12.03053035      17.01898178      16.50786097       0.00795454       0.09908718       0.00055276
Ar       3.65642580      11.70041845       0.89082192      -0.02947880      -0.06537593      -0.05387502
Ar       4.91863132       7.89139049       3.92592180       0.03681863      -0.01990443      -0.08037688
Ar       8.46617037      13.67493178      10.43644837       0.00168956       0.02246995      -0.01732012
Ar      14.51903238      11.47640844       2.42595454      -0.07150884      -0.03978279      -0.06333531
Ar       4.28417473      16.80628704       8.94208249       0.07103286       0.02297722      -0.01467417
Ar       6.83841663       5.49968979       0.04893006      -0.01547666       0.00901607      -0.10607514
Ar      16.31975282       5.83385339       3.90523257      -0.00594333       0.07617235      -0.03118545
Ar       1.03831623      15.10323200      11.61220132      -0.04112851      -0.04002303      -0.03792167
Ar      12.37924540       5.76477389       4.06920213      -0.03237756      -0.05108991       0.01881742
Ar       5.70174163       4.09905875       3.51915620      -0.02643044      -0.04014386       0.00594684
Ar       1.34003182       1.08400036      15.54805386       0.02312866      -0.08102992       0.01495025
Ar       0.59509249      11.33568735      15.62709225       0.13784918      -0.02116421      -0.00208944
Ar       2.40839881       5.44938934      11.13471444      -0.00821574       0.07301180      -0.00919074
Ar      12.53515104      16.87865811       9.64462607       0.06687917       0.05440760       0.03219937
Ar       4.55434841      10.55406332       8.84626444      -0.04055184      -0.07644925       0.05900367
Ar      16.91741355      16.88790199       4.18704578       0.01109322      -0.05090429       0.08085842
Ar       2.56325307       1.56681488       2.10161806      -0.00989433      -0.06630929      -0.05768799
Ar       9.17694802       3.66610679       5.25032620      -0.03456657       0.02203037       0.08789641
Ar      13.72287918       7.50006064       7.76767131      -0.05675709      -0.02261192      -0.02797816
Ar       5.03043889      13.63831382      10.26292885      -0.07236932      -0.05140093       0.06747504
Ar       3.68666108      15.97268350      17.17412833       0.01071353      -0.03852294       0.03217032
Ar      16.63722424       4.15510817      13.51500707       0.03244449       0.03239679       0.08498257
Ar       1.49692407       1.78799238      11.74662161      -0.08193448       0.02321119       0.03605141
Ar       3.55041263      14.67709988       3.34686596       0.00718289      -0.00772162      -0.07486175
Ar       4.10064723       4.49962807      14.67037476      -0.03273937       0.04926842       0.03653572
Ar      15.03932494      13.96943281       9.30394043       0.02756973       0.00899911       0.08394457
Ar       4.24462525      12.46821086       5.99592011       0.01508465      -0.05529992      -0.06422884
Ar      10.19432307       3.97018441      14.81750285       0.11061676       0.05054018      -0.03220551
Ar       5.08976107       7.49847933      11.91273168      -0.00755430       0.00812012       0.02178192
Ar       2.94497264       6.38218352       1.39374376      -0.06125001       0.00182230       0.09657989
Ar       5.43731894       1.94718721      16.76708897      -0.07312322      -0.05119633      -0.03799295
Ar       2.66544653      10.01455696      12.86225467      -0.00285919      -0.09774977      -0.05464677
Ar       7.21706369      12.92991206      16.99190943      -0.08193975       0.05133631       0.00229236
Ar       3.35633592       0.61550004       5.36145466       0.05528624      -0.00331610      -0.03786179
Ar      13.32264610       2.06967552      13.99020128      -0.02124959      -0.01764466       0.07583296
Ar       0.10508018       0.17332243       8.23891344       0.04809496       0.01011551      -0.04697764
Ar       7.15568439       4.76577481      13.11696627       0.05826022       0.01252838      -0.11192754
Ar      10.83567546       5.70619727       7.41629847       0.03887589       0.04476339       0.08124363
Ar      13.92911404      15.56115760       2.19483632       0.07356545      -0.02227356       0.01244735
Ar       5.14890567       2.19762622      10.99936163      -0.03274930      -0.01811135       0.00914266
Ar      14.89114702      13.58494554       5.91700819       0.05577870       0.09366383      -0.05163775
Ar      10.20347434       2.10379085       8.48791666       0.00111375       0.01019577       0.11429750
Ar       8.39911400       6.74550917       3.54221027       0.07524622      -0.00711537      -0.06585589
Ar      10.08219069      14.66709023       1.14932289      -0.06436634      -0.03127883       0.07473960
Ar      10.57107464       6.07674182       0.33119669       0.02630344      -0.02929975       0.00573970
Ar       7.68080971      12.36531587       7.10169611      -0.00543481       0.02768522      -0.01250978
Ar      17.31793156      13.81815853       1.65776098      -0.00295659      -0.06586067      -0.01061280
Ar      10.79536940      13.14816728      15.35012311       0.02522785      -0.02256630      -0.03790800
Ar       9.30788470      16.96638789       3.74916900       0.03650615       0.02989910       0.00395306
Ar      11.70897500      12.42707520       8.27063877       0.07601115       0.01967845       0.02296532
Ar      13.78979569      10.28474544       5.90475127      -0.06635885      -0.06709834      -0.03032048
Ar       1.37198437      11.57693514       3.96334361       0.02020943       0.02529911       0.02997351
Ar       8.60956026      10.03323035       1.96785759      -0.07166272       0.01373046       0.11855432
Ar      10.45563599       9.15741600       4.97977924      -0.01162042      -0.05803148      -0.10847804
Ar      15.97192387       1.79562951       1.73838929      -0.03429729       0.04371452       0.05592665
Ar       4.19901316      17.29556097      13.65424009       0.03523880       0.03043017      -0.16135240
Ar       2.23372463       3.33797304       7.98702889       0.08008524      -0.09414531       0.05638999
Ar      10.64696901       8.95245795       9.04060349      -0.00638011       0.11171296      -0.00135208
Ar      15.29430844       8.82496611      15.99883914      -0.03309658       0.07803957      -0.01995672
Ar       2.01990941       4.54624659       4.40747542       0.04568116       0.02653112       0.01630795
Ar       3.46995527       7.20442397       7.21447570      -0.07735948      -0.09792708      -0.03423334
Ar      12.95375237       9.00999270      12.75292545      -0.11500084       0.04841512      -0.06910984
Ar      13.47090795       5.87003925      15.14652044      -0.03426724      -0.00820735       0.05346287
Ar      15.08169786      16.26996602      12.87477079      -0.01206364       0.07678740      -0.00916886
Ar      17.26135670       9.74665075       6.55532560      -0.06158920       0.02783894      -0.02688345
Ar      14.18314099      12.49344821      15.41986762       0.00980389       0.02420334      -0.03878540
Ar      11.31351501      13.74984098       4.31456139       0.05702950      -0.05624563      -0.06161604
Ar       1.71929729      14.72671515       6.29934365      -0.01073792      -0.04290934       0.03312556
Ar       9.39950210       2.25332228       1.37951717      -0.04727117      -0.05364497       0.10102335
Ar       0.42261234       9.02222765       1.34263929      -0.02946785      -0.07611089      -0.09501934
Ar       3.98749142      12.96212870      14.68033797      -0.05709662       0.01009583      -0.05100182
Ar       6.38603930       2.97222633       7.48010547      -0.03866927      -0.00753070      -0.03736736
Ar      12.28679337      13.08227602      11.80507251       0.04853952      -0.03467718       0.13744475
Ar      16.44419679      12.44412785      12.41971238       0.01043555       0.04255354      -0.04164484
Ar       7.70622225      10.83899546      14.40970744       0.06311240      -0.00829762       0.00511273
Ar       9.79819816       7.66861175      13.73421713      -0.03984079       0.01178116       0.03350430
Ar      13.01522753       5.13959360      11.20864834      -0.00000163      -0.06361681       0.00410359
Ar      13.75481996       8.22218026       1.97353443       0.01337109       0.03748886       0.02106010
Ar       0.57986788      14.70798507      15.31462437       0.00752466      -0.05386492      -0.02813948
Ar       7.30950460       1.10293674      13.84128214       0.04288069       0.01861032      -0.05650994
Ar       0.86055040       7.09112907      14.61427478       0.06316280       0.04154507      -0.00032632
Ar      16.29278538       2.51348736       6.03945602      -0.02054141      -0.04738552      -0.02110539
Ar       4.46811188       8.90417923      16.35700967       0.01618268      -0.03013596      -0.04339125
Ar       6.01984328       0.37075613       2.68357006      -0.09570069       0.08203139      -0.04242949
Ar      11.67918392      10.38440404      17.21567256       0.04986568      -0.05730198       0.06262576
Ar      15.04492907       1.88006346      10.45194626       0.08056635       0.01889062      -0.09598697
Ar      16.14013831       7.00448996      11.28419477      -0.08728109       0.04539993      -0.01110640
Ar       7.65618320      16.46374109      16.94588305       0.01584620       0.05547148      -0.00501733
Ar       1.48211613      12.31793645       9.59529085      -0.00602517       0.10769223       0.04821521
Ar       6.95197983      14.24112217      13.43166120      -0.02514593      -0.02570552      -0.12611734
Ar      10.32443319      16.53167581      12.77374585      -0.03732411      -0.05350271      -0.03341319
Ar       6.46071346      15.68575325       6.13606898       0.00751526      -0.01555170      -0.02485360
Ar      14.98145662      10.19891296       9.65643334      -0.05413503       0.06375617       0.02598252
Ar      13.50951426      17.00433981       5.71107065       0.00348399      -0.00395092      -0.01093205
