108
Lattice="17.35 0.0 0.0 0.0 17.35 0.0 0.0 0.0 17.35" Properties=species:S:1:pos:R:3:momenta:R:3 pbc="T T T"
Ar       9.17894840       2.21407610       6.22188439       0.06417785      -0.07332947       0.09980848
Ar      10.01191349       6.98745555      12.32924317       0.01812178       0.02055954       0.02463461
Ar      12.49224985       2.70457609       5.55613528      -0.02982746       0.00786644       0.02393062
Ar      17.32793976       7.63400513       5.68507084      -0.00550116       0.02022100      -0.07027693
Ar       6.67693282       3.05279579      12.15159891       0.07613038       0.07666159       0.04255216
Ar       3.42360092      14.96545206       4.82234249       0.07271862       0.04339167       0.01729207
Ar      14.54171160       5.63058286       4.27798909       0.01264232       0.00113383      -0.03249331
Ar      11.95494300       7.58347129       6.57565741      -0.02633615       0.01104692      -0.01360998
Ar      10.28660057      15.64541571       6.41086573       0.00696967      -0.07704001      -0.09560685
Ar      15.57261143       5.85055613       1.14506673       0.01212328       0.09489784       0.04460878
Ar      16.09846525       8.77638815       9.38053268       0.05365023       0.03283261      -0.00310255
Ar       3.95252855       2.91501289       8.62234751      -0.04811707      -0.08694220       0.03242356
Ar      11.82052027       5.13121542       1.76778403       0.06717433       0.06611753      -0.00166196
Ar       9.21269758       8.22102933       9.16051217      -0.04025289       0.04479921       0.07441745
Ar       4.28080726      17.04374490       0.91699008      -0.04420524      -0.00530972       0.09157149
Ar       2.24292108       4.31591338       5.73995879       0.03393053       0.04157706      -0.03383422
Ar      11.15214533       9.92353296       3.72808232      -0.05232940      -0.00250966      -0.04215245
Ar      10.93952398      15.33782183       2.73589607      -0.04339937       0.06589237      -0.01586050
Ar       8.49508182       5.27648045       3.21352728      -0.05239761      -0.02260640      -0.06303672
Ar       1.74067964       7.69397209       2.40404872       0.00447671      -0.04662209      -0.01519932
Ar      15.76254182       9.09309020       2.84800640      -0.00524898       0.00174170       0.04438743
Ar      14.09048566      16.21276189      11.00234405       0.06400852       0.06409480       0.05685861
Ar       5.79586788       3.41902797       5.04707655      -0.04352022      -0.00070271       0.00148476
Ar       5.16734557       6.71686226       3.63616749      -0.00170941      -0.02168981      -0.06095850
Ar       0.58646527       3.63271872       2.69698718      -0.03320712       0.04780072      -0.15241510
Ar       7.04150204      15.77131056      15.69970993      -0.04261435       0.00176638      -0.04049820
Ar       8.09426264       2.12325993      15.37533245       0.07241550      -0.02520108      -0.02179035
Ar      11.95142578      17.12120120      13.75614758       0.01189792       0.01769664       0.09196240
Ar       2.19804171       1.56269782      15.81232043      -0.02489128       0.03310325       0.15001451
Ar      13.80838766      16.66792452       7.06804606       0.08227728       0.09199726      -0.09006110
Ar       6.84470971       4.96716656       0.30859388      -0.07054806      -0.02371224      -0.05888459
Ar       7.75903268       4.30435078       8.49105440       0.04872309      -0.00531401       0.06527468
Ar       5.42637080      10.56122004       9.87441339      -0.06287817      -0.03394049      -0.03894387
Ar       6.82456258       6.21606554      14.09055453       0.08626068      -0.06083087       0.01573135
Ar       4.37857320      17.25930053      13.35668737       0.04671688      -0.02076517      -0.00289608
Ar      16.91293726       5.20613253      12.60910513      -0.04762127      -0.00454721       0.01080822
Ar      16.40486269       3.72215219      15.90252872      -0.00446679       0.08161953       0.07637881
Ar       3.47745203       0.87773400       3.73794657      -0.00906915       0.10511909      -0.03441494
Ar       3.06934799       4.55945578      12.36861638       0.06213985       0.01915444       0.00085618
Ar      10.73911260       0.82660224       9.63704836       0.07177595       0.03734257       0.00279272
Ar       5.55742595       6.30391593      10.72622790       0.05342722       0.01890907       0.06220862
Ar      12.83086084       7.25409339       9.91751417      -0.06438950       0.03764157       0.08284884
Ar      13.44433664       4.38159106      11.72081646      -0.01739574      -0.00376674      -0.04884038
Ar       7.95296417       1.13857614       1.91292107       0.04700550      -0.09491470       0.02444291
Ar       4.02083946       3.80152736       1.93620813       0.07024998      -0.00170411      -0.11639219
Ar       0.23083175       8.77272249      12.39600360       0.05029929      -0.07484857       0.00122997
Ar       1.60378398      11.12024116      14.77729195      -0.05104452       0.05806073       0.00045567
Ar       0.95996169       1.98807583      10.31992289      -0.01882839       0.09737049      -0.09809917
Ar      11.18275124      10.80237349      14.45727574      -0.06426977       0.09661319      -0.00922617
Ar       2.06218417       6.79682079       9.65227414       0.04997113      -0.02626160       0.07283665
Ar       9.83805718       5.37738581      15.73411624      -0.02948331      -0.07668242       0.00894234
Ar      10.07802394       3.56493813      12.55263095      -0.02745991      -0.01517481      -0.00332509
Ar      16.44625519      12.00890070      17.14919621      -0.05638200      -0.00299142       0.02384101
Ar       7.86144384      13.03619428       8.39908700       0.05115458      -0.01977746       0.02944203
Ar       0.82211276      11.51920776       7.61999673      -0.01607784       0.03469234       0.03140278
Ar      14.73451509       2.08523031       9.27056450      -0.08695093       0.00714925      -0.02390533
Ar       3.77999389       9.41358191      16.89561954       0.05898660      -0.04917000       0.04985141
Ar       8.82156390      11.71142563       1.03568443      -0.06105706       0.01137480      -0.04278677
Ar      13.14017321      11.97434336       1.66979902       0.02945380       0.05425470      -0.01819691
Ar       8.07419261       8.41090765       5.45386226      -0.02700363       0.07032746       0.09360089
Ar      14.49874367       2.21630538       2.47709310      -0.01398867      -0.04235750       0.04939075
Ar       8.30627928      12.72390942       4.66944856      -0.08156816      -0.06493252      -0.05743207
Ar      10.71664202       0.15055025      17.27702510      -0.00155684      -0.05241902      -0.05058193
Ar      12.95675943       8.42965872       0.38231926      -0.01095626      -0.08743658       0.02734684
Ar       3.27088664       8.37118705       5.89095366      -0.03886383      -0.11187328      -0.04380891
Ar      17.28392362      15.58001910       8.93043838       0.01160398       0.03391973      -0.02703351
Ar       2.97446457      13.43868322       1.32740573       0.07896310       0.04382908       0.01925380
Ar      14.16367178      10.36254843       5.58889265       0.00440732      -0.09421893      -0.03109706
Ar      16.37378450       2.53713303       5.51274398      -0.04354397       0.04149946       0.01573277
Ar       9.10018852      13.07558159      11.93958308       0.00474411      -0.03287475      -0.02791763
Ar       6.53113099      16.61462831       5.20769593      -0.02482665       0.03457813      -0.03496699
Ar      14.35679610      12.99679659       7.93948930      -0.03308415       0.01465824      -0.07632164
Ar       0.43703252      16.23780202       1.28641237       0.00468240       0.01509319       0.02099016
Ar      16.17164838       5.26912341       8.24359160      -0.03291501      -0.03743279      -0.03982380
Ar       5.16170409      10.40807950       2.42693099      -0.01974837       0.01229846      -0.03693272
Ar      10.86578136      11.06583102       7.23048532       0.00305177      -0.01912008      -0.04708477
Ar      12.86583528      13.70205711      12.74674895       0.02160094      -0.05202185       0.09303176
Ar      12.89381167       2.68358724      16.35315851       0.06008173      -0.03959110      -0.02727539
Ar       8.95982062       8.06702315       1.10505745      -0.13517154       0.03281520      -0.05122053
Ar      12.96481284      13.34250763       4.69079109      -0.01579878      -0.06220977      -0.02352373
Ar      17.18054633      14.61753982       5.02901017       0.00808931       0.00608013      -0.08119108
Ar       2.08803698       0.47355235       7.30689248       0.06000623      -0.02032869      -0.02433193
Ar       8.29107607      16.73945690      11.95325862       0.00181189      -0.00937581       0.00118366
Ar      17.03815960       8.19771928      16.47990234       0.02178951       0.02107314      -0.02896037
Ar       4.07073674      15.13409579       8.89643794      -0.05462092       0.02541751      -0.05991497
Ar       1.27566451      11.43256527       4.14063850       0.02408105      -0.02280246       0.09925771
Ar      11.70500717      10.59459905      10.79064505       0.00703797      -0.00714188       0.08388613
Ar      15.97128579      14.10267376      14.34385547      -0.12697900       0.00932374      -0.08089400
Ar      16.26700418      12.74442844      11.31884981      -0.02178681      -0.03474684       0.04738257
Ar       5.67570166      12.45629589      16.58702284       0.10282040      -0.01205708      -0.09456992
Ar       2.59426697       5.80363638      16.27689472      -0.06311703       0.10499241      -0.01842432
Ar       7.15786433       9.64913611      15.38224124       0.04945864       0.03093656       0.06973843
Ar      14.45484139       9.84267677      14.01117811       0.07906973       0.03520349       0.07568579
Ar       5.56506224      13.76790214      12.45456603      -0.05325833      -0.08848115       0.05572648
Ar       1.69099663      15.41884257      11.84899273       0.04775033      -0.04711782       0.04701211
Ar      11.19038101       4.48412308       8.53138090       0.00195067       0.00002663       0.03189960
Ar       4.00514476       8.86951692      13.34306211      -0.01845024      -0.02307182       0.08068973
Ar       6.32587338      14.44690080       2.31649433       0.15384901       0.02128058       0.03558954
Ar      14.35520037      16.11046388      16.62555250       0.01871381      -0.07848206       0.03539176
Ar       2.24891035      14.93585164      15.48670989       0.01158108      -0.02878824      -0.03971161
Ar      16.32806739       0.33240719      13.70511023      -0.06733608       0.05672893      -0.01856852
Ar      10.98962980      14.06480523      16.05894733      -0.02983680       0.04108250       0.03695122
Ar       2.04681306      11.64317856      11.22660426       0.02604998      -0.12674730      -0.00402896
Ar       7.93089311       9.83897048      12.03507634       0.00617055       0.03614466      -0.03053541
Ar       6.72114830       0.54251381       9.13929319      -0.03420434       0.03980477       0.01286648
Ar       5.35891678      11.32281306       6.40017569      -0.00413415      -0.00865828       0.04983599
Ar      11.11570154      14.12658754       9.19547631      -0.00838248      -0.02710488      -0.08122419
Ar      13.73141951       5.96586850      15.18475255      -0.04563282      -0.06386668      -0.05188981
