108
Lattice="17.35 0.0 0.0 0.0 17.35 0.0 0.0 0.0 17.35" Properties=species:S:1:pos:R:3:momenta:R:3 pbc="T T T"
Ar      10.32055610      17.21063834       9.28952611       0.03488973      -0.04017575       0.04809096
Ar       6.50137790      11.52436541      12.68210925      -0.09481593       0.05009795      -0.00513040
Ar      14.84696676       1.66299601       3.75993366       0.02160596       0.10786835      -0.00259669
Ar      16.71401821       5.95613265      14.40463911      -0.05802784       0.00766988      -0.01409479
Ar       5.15206035       5.47988485       8.25951785      -0.00199188      -0.00915369       0.14748667
Ar       5.90650197      13.92037425       3.61977946       0.00995906       0.05212971      -0.06387029
Ar      12.23662613       2.99047576       7.60113353       0.05200539       0.03176718       0.07739490
Ar       6.98132338       8.31495159       6.31072015       0.06332893      -0.03750722      -0.06244026
Ar       6.82747002      15.77618191      10.44387138      -0.02987828      -0.00537982       0.02388383
Ar      13.68770872      17.24869538       0.56816123      -0.05731266      -0.06925812       0.00114864
Ar      16.52147922       8.39293657       9.43782508      -0.05540857       0.05631062      -0.07372775
Ar       1.51062571       5.57705882       8.19240036       0.01908364       0.01061521      -0.03817526
Ar      12.75627633       3.89065280       1.62046779       0.01233443       0.09483755      -0.09854280
Ar      10.45263979       1.44597199      16.72378014      -0.05434095       0.04139121      -0.03996274
Ar       2.25943807      10.75439093       1.06338517      -0.05492678       0.09401342       0.00885786
Ar       3.73787878       8.07358959       3.22970695       0.03000228      -0.05436781       0.02974326
Ar      10.51939702      13.38070713      12.12560811       0.10046972      -0.02123387       0.00858375
Ar      13.52781442      11.44426326       1.05187037      -0.01532087      -0.06606853      -0.05316078
Ar       4.48178310      16.18010313       7.05257065      -0.00416402      -0.08562215       0.01380739
Ar       6.60941735       4.04620757      15.71257849       0.00591536       0.02302009      -0.13299869
Ar      16.08168022       5.46584498       3.89117406      -0.02051195       0.02476503      -0.03285000
Ar       3.57799284      14.55698670      11.85862179       0.05288769       0.09245111      -0.03659529
Ar      12.03839198       7.38103776       5.60046621      -0.06212676      -0.00832256      -0.00352064
Ar       5.85250696       0.20486187       3.98448107       0.01182638      -0.01460614      -0.00336967
Ar       3.33368176       3.27984388      14.57868112      -0.05187132      -0.08457516       0.00311716
Ar      16.06854036      10.24382905      16.42832696      -0.04157767      -0.04827500       0.00920783
Ar       1.35441303       7.22328292      11.60533293       0.11595468       0.01972651      -0.00433873
Ar      12.90745635       2.11963693      10.99241879       0.01582576       0.07685844       0.06791754
Ar       6.92054027      10.01918311       9.25023019      -0.06985243       0.02419620      -0.03535415
Ar      16.26671171      15.95346133       3.88918440       0.06884552       0.02698741      -0.01463834
Ar       0.73395309       0.04631809       0.79598497      -0.01184467      -0.04535126       0.06376134
Ar       8.19263386       3.18904616       6.16226299      -0.04826273      -0.05255580      -0.06634937
Ar      12.96085003       8.07257199       9.06517720       0.03011132       0.01302497      -0.07213043
Ar       6.93492688      13.53279094       7.34501663      -0.03813203       0.10836848      -0.08830041
Ar       2.84914876      16.24475926      15.19343596       0.02869997      -0.02192606       0.02057795
Ar      17.05846121       3.16212949      11.50037885       0.10644412       0.06819966      -0.03622254
Ar       3.43239918       4.36336128      11.43430028       0.01440033      -0.01387461      -0.06737018
Ar       0.19031603      13.49370830       0.23813041       0.01404434      -0.01576007      -0.02856974
Ar       4.26809289       7.12066294      13.88402706       0.08005625       0.03110731      -0.04785791
Ar      16.50604109      15.06147155      10.47034776       0.04039208      -0.01191613       0.08863733
Ar       4.73478812      10.95728526       6.12970206       0.07172476      -0.00996719      -0.02130509
Ar       9.88536197       3.24429180      13.66873733       0.02647075       0.03445373       0.03032915
Ar       7.15536203       6.48136922      11.33597797       0.01771407      -0.07362570      -0.07527400
Ar       4.08381772       5.79990125       0.30793081       0.02408204      -0.01632105      -0.05466913
Ar       3.88050484       2.08752798       1.24856655       0.02544742       0.04329604      -0.03303362
Ar       3.01986147      10.46118745      12.79803629      -0.07843458      -0.07702126       0.06503013
Ar       6.49592865      14.14558126       0.17552580      -0.03105227      -0.04647521      -0.08415018
Ar       2.55091224      15.64600537       3.68609100      -0.06574240      -0.01788511       0.01418069
Ar      13.66171984       4.26222624      15.59170587      -0.03148978      -0.03974100       0.04391253
Ar       0.65157444      14.60489595       6.90736098       0.02604326       0.06473556      -0.01887958
Ar      11.54077163       6.54356881      12.94207306      -0.03434355       0.02430221      -0.03423366
Ar       9.49083076       6.58020047       8.16965885       0.01786667      -0.04599997      -0.01839469
Ar      12.69065430      14.83040787       3.07729866       0.00843431       0.01180396       0.05627998
Ar       6.37073655       2.94281406      12.51171814       0.04217549      -0.01782702      -0.01471484
Ar      14.68582874      13.03377412       5.67673542       0.01805726       0.01876686       0.05879475
Ar       9.56240435       3.33907784       9.88697200      -0.04599499       0.05222623       0.00244515
Ar       5.70490007       5.30018786       4.48141966      -0.00556955       0.02920025      -0.06365318
Ar       9.65531793      13.41658702       1.64223977       0.06856401      -0.05839284      -0.02998322
Ar      10.05508553       5.17601488       3.59430571       0.07859077      -0.08451749       0.07709851
Ar       8.56009300      11.63558176       4.69919246      -0.05768790       0.00949218      -0.03354315
Ar      14.46505297      13.53686474      15.58910773       0.00856036      -0.09937658       0.03155315
Ar       8.75160510      11.53683504      16.26468822      -0.02522722      -0.04879570       0.07007883
Ar      11.47938932       1.30341331       4.15443638      -0.04371657      -0.01052297       0.01462140
Ar      12.86606676      15.56831558      10.45262577      -0.01835897      -0.03393357       0.01319547
Ar      15.19674228       9.33030709       6.09133660       0.02168754      -0.10733396      -0.00854436
Ar      16.51658775      10.70322186       2.55924958      -0.04112020      -0.03353884       0.02781653
Ar       7.24642323       7.06359352       1.35320914      -0.00255138       0.00955757       0.00091527
Ar      12.19123524      10.62888522       4.60945200       0.07749893      -0.02945061       0.01331226
Ar       0.07011125       3.63592265      17.11053013      -0.14286990      -0.02977226      -0.02737921
Ar       3.40823727       0.65489772      11.63180264      -0.01244075       0.09872622      -0.01833382
Ar       3.11933187       2.43328002       6.27513045      -0.04428403      -0.03417348       0.07748688
Ar      10.14082587      11.94756925       8.73006158       0.08957631      -0.03560402      -0.00972457
Ar      12.48371007       9.79161420      15.16817411      -0.05994141      -0.04221605      -0.05255473
Ar       2.24005247       4.42104941       3.04275664       0.08560237       0.01554582      -0.00415850
Ar       3.40466237       8.99062274       9.29899257       0.05538397      -0.05323070       0.00191828
Ar      12.00462360       9.91501571      11.72175069       0.00077685      -0.10635246      -0.04065184
Ar       9.83788031       5.02766183      16.90788190       0.03743560      -0.07396001       0.05822848
Ar      17.08584609       0.08730246      13.20382184       0.01201441       0.03933111      -0.01791944
Ar       1.41757973       8.74467932       6.60013433       0.08676340      -0.00266243       0.04656294
Ar      10.69832172      15.14394667      15.93259081      -0.02790188      -0.03328191      -0.09469937
Ar      11.86988262      14.71383787       6.95787918      -0.01142552       0.04797433       0.00174653
Ar       1.88114144      12.24313395       4.46700183       0.00203836      -0.02188354       0.00952419
Ar       7.38667843       3.08451536       2.09656172      -0.08401656       0.00681200       0.03469350
Ar       0.46766241       7.25162404       1.46298022       0.07006474       0.03560295      -0.10277270
Ar       3.74633021      12.66157147      15.78399173       0.00145256      -0.01351709      -0.02562780
Ar       5.75274198       1.71704987       8.58450780       0.00866442       0.08126877       0.04895293
Ar      14.20102165      12.41598358      11.98889595       0.05473222       0.03423552       0.00866288
Ar      16.07497171       9.38963758      12.97031464      -0.05702202      -0.11084278       0.03873505
Ar       6.24606983      10.58503162       2.57486731      -0.14580971      -0.01387828       0.12852249
Ar       8.43637585       8.34534310      14.41526045       0.03648223      -0.00598316       0.07026292
Ar      15.14163599       5.59983495       7.62037721       0.14184020      -0.00316884       0.02048775
Ar      13.62254883       7.87490083       2.06005178      -0.02706318       0.01208759       0.04504693
Ar       0.38661902      12.86426447      13.94941835       0.07583525       0.08049451      -0.04951342
Ar       9.98328805      16.84579819      12.98659516      -0.05506964       0.01007485       0.03012352
Ar       1.55249333       8.53425109      15.46992713       0.00521615      -0.01833916      -0.02289929
Ar      17.04548073       2.29477242       6.19458673       0.02462145       0.06922323       0.02557025
Ar       5.46869735       9.70071456      16.18792939       0.01601841       0.04263191       0.01887325
Ar       8.64048960      16.62440585       1.85963288      -0.00293806      -0.04062215       0.05320287
Ar      10.12463441       9.03247945       1.80473761      -0.01079455      -0.10066445      -0.02874790
Ar       0.98318939       0.84635704       8.94351795       0.03282248      -0.03374456       0.01004067
Ar      14.61880871       5.59211983      11.41967298      -0.03623158       0.06785036      -0.04843956
Ar       7.24501162       0.48505186      16.12195203      -0.02643099       0.07891814       0.11987710
Ar       3.02820853      12.49288672       8.92812161       0.04695311       0.03607504       0.00550668
Ar       6.93708295      14.96148515      14.10484582      -0.09435544       0.08001447       0.12324607
Ar      13.59723200      17.12313698      14.26661168      -0.07340313       0.02424605       0.04714413
Ar       9.05028074      16.63050216       5.88607913      -0.05530972       0.10323289       0.05913262
Ar      14.56385117      11.59921940       8.83901929      -0.06699522      -0.04581141      -0.00474258
Ar      14.51318372       0.29995927       7.86463664      -0.06033505       0.05877794      -0.05461781
