108
Lattice="17.35 0.0 0.0 0.0 17.35 0.0 0.0 0.0 17.35" Properties=species:S:1:pos:R:3:momenta:R:3 pbc="T T T"
Ar       9.97154560      12.15915290       3.42940547      -0.00686645      -0.01370973       0.03190807
Ar       7.03624935       8.80257760       9.72982461       0.03025540      -0.08092531       0.04671477
Ar      11.66264030       3.56473325       4.38344896       0.05496414       0.00487889      -0.09325408
Ar       0.21757066       8.18342922       3.02104792      -0.01497030       0.03442162      -0.07327152
Ar       4.05237227       7.20161275       7.86648965      -0.05936752       0.12574275      -0.01408202
Ar       6.14156011      12.40825648       2.53464024       0.03732469       0.09959197      -0.00632122
Ar      12.73532436       4.96015210       7.85301531      -0.02358704      -0.07556365       0.01192455
Ar       7.87252778       9.20581076       5.71293604      -0.01781632      -0.01377674       0.04937327
Ar      10.37302068      16.20706020      10.57561331      -0.07691928       0.04573853      -0.05945315
Ar      13.64491515       2.08594664      16.98019313      -0.03067784      -0.06830966      -0.06198010
Ar       0.98602319       5.52624910      10.36128314      -0.01506519       0.04337948      -0.08153940
Ar       2.47772789       3.15056132       6.87732984       0.08153666       0.05530523       0.03517325
Ar      10.62791582       1.40885290       1.49443685       0.03237537      -0.01602867       0.06132954
Ar      11.58126659      14.25659581      16.40669803      -0.00159118       0.01033975       0.03344344
Ar       2.90480762      11.51280572       1.40221547       0.05275085      -0.07068365       0.02731186
Ar       1.60097405       6.34408709       5.65463335      -0.02256446       0.01819233      -0.01765155
Ar      11.35638325       9.85933657       5.76847293       0.07000831       0.09044240      -0.02619852
Ar      13.53175235      13.26383250       2.84370735      -0.05509304       0.08983083      -0.01271556
Ar       6.92217418       0.15036525       7.75452067      -0.06962297      -0.06700615      -0.01423944
Ar       5.30836148       6.46774624      15.21424880      -0.03731441       0.06877170       0.06855621
Ar      15.16946768       7.32434681      17.33402099       0.02147790       0.06808885      -0.00885613
Ar       0.70443610      17.14318036      11.64891691      -0.02436919       0.00144505       0.09692632
Ar       8.89273631       5.51385691       3.89720478       0.03682343       0.00682501      -0.05790913
Ar       6.79100729       6.63338497       1.05260899       0.03325137      -0.09544666       0.02841347
Ar       0.68075438       4.53663196      17.32080074      -0.03006500      -0.06827148      -0.03982204
Ar       3.50741401      15.44093036       1.03545635       0.01081714       0.06365366      -0.05861426
Ar       4.65117993       5.77947455      11.33160331      -0.06051687       0.04008694      -0.05849325
Ar      14.15126394       0.27528759      12.04144534       0.03674426       0.01675377       0.00238569
Ar       3.65494371      10.39236297      10.21565432       0.14013920       0.04816115       0.06610399
Ar      15.54304079      14.80206919       5.29249732      -0.04263144       0.09744760      -0.00429359
Ar       1.02763986       3.35541479       3.74549082       0.05761297       0.06446999       0.03054441
Ar       8.55732778       2.14832925       4.11250288       0.06060071      -0.11191113      -0.05728740
Ar      15.40625333       7.28960851       6.07637098       0.00160827      -0.00872452      -0.04533282
Ar       6.74726264      13.21610750       9.81893330      -0.06465158       0.11429000       0.09728149
Ar       2.52463216      17.29918435      14.70850509      -0.05568002       0.01918191      -0.02820474
Ar      13.89164646       4.72573779      14.74067779      -0.02029574       0.05382280      -0.04768233
Ar       1.85694123       5.39505359      13.69461279      -0.01544235      -0.07949908      -0.05365434
Ar       2.74228557      16.17865751       4.72356204      -0.10055557       0.01130853       0.02768136
Ar       5.10543278       2.71598228      13.60142684       0.09335012       0.06305265       0.01167600
Ar      15.71986265      16.54519302       8.71777848       0.01153540       0.01486978       0.03246728
Ar       4.90967176      10.99028757       6.88561646       0.00310521      -0.00571169      -0.00812254
Ar      11.83695272       7.30160931      12.32687467      -0.09403253      -0.05053995       0.00583914
Ar      16.44179801       7.45723097      13.63277386       0.02180248      -0.01104129       0.04568187
Ar       3.79039317       5.09842540       2.17171226       0.05980961      -0.04431320       0.04841046
Ar       4.53702759       1.54538239       0.08114270       0.11800510      -0.09736587      -0.02221121
Ar       2.57465600       8.95476615      13.50784469       0.01387592      -0.01716654      -0.09315232
Ar       4.93361480      14.39706078      14.93686504      -0.01855132       0.02593189       0.05208347
Ar       0.05889057       0.66608902       6.04262861      -0.02696082      -0.04484599      -0.00185740
Ar      10.39652539       0.47461529      15.04874183      -0.00353595      -0.03436065       0.01946621
Ar       3.09996995       2.14589789      10.77384140       0.07523991      -0.09119881      -0.03576931
Ar       8.60087104       6.64145384      14.12814472       0.03805691      -0.06949319      -0.04781860
Ar       9.12343953       5.95614207       7.18675327       0.01997563      -0.01653222      -0.03482480
Ar      13.85164942      16.87794720       2.80430735       0.03283184      -0.07659632      -0.02497838
Ar       6.07266107       4.03854129       8.50611370      -0.01748971      -0.07438275       0.04513629
Ar      17.15856010      12.95826767       8.03004949       0.00009886       0.01779417       0.01749888
Ar      10.48518364      16.67800677       7.04922298      -0.03075764       0.06222851      -0.09728739
Ar       3.76771086       8.69971796       3.69133296       0.03199871      -0.00181692      -0.06100273
Ar      13.18553893      10.14329141       1.09050769      -0.02995704      -0.04319522      -0.04112827
Ar      11.18527438       6.40489923      17.32441386       0.00259594       0.01521471       0.07250295
Ar      10.52876135      11.94098731       9.48284057      -0.01515299      -0.02469377       0.02599548
Ar       0.69470044       0.97354124       1.33139441       0.03782576      -0.05284692      -0.03675890
Ar      11.33098008      13.10678513      13.20920190      -0.12953873       0.00200025       0.10042423
Ar       9.69764803      15.18724349       1.91272100      -0.02916650      -0.01262200      -0.01211227
Ar      12.99890623       7.36346881       3.39805494      -0.03768330       0.01710995      -0.07035562
Ar      14.84450146      10.18483849       4.11368909       0.05601199       0.03435138      -0.03761037
Ar       1.86076303      12.70257685       4.95063955       0.01714670       0.02349812      -0.00207664
Ar       5.72885478       9.70213224       0.09311850       0.01435219       0.05823549      -0.03368043
Ar      11.89411774       8.12526496       8.96674206      -0.07026266      -0.00331541      -0.02199935
Ar      15.02190510       4.04328058       2.93822389       0.04248472      -0.06595409       0.07441721
Ar       5.40888198      16.80388878      11.48656756      -0.01937276       0.01630285      -0.02788767
Ar       4.70817903       1.82941438       3.76231562      -0.03827382       0.10430424       0.04227903
Ar      14.76289739       7.07497325      10.42928418       0.03361962       0.04729532       0.06248723
Ar      17.01378709      10.16855967       0.40306367       0.01582863      -0.05158719       0.05073200
Ar      16.06824794       3.99236476       6.96627278       0.02808837      -0.00332620       0.01343433
Ar       5.66828563       5.36233269       5.26588037      -0.07564238       0.03727242      -0.07485241
Ar      14.46645293      10.70929949      11.31062439       0.00108695       0.03820514       0.03195900
Ar      10.54622831       3.80273234      13.75600695       0.02582990      -0.08870565       0.12922737
Ar      15.67705301      16.14834789      16.01961903       0.00162454       0.03396816      -0.03088666
Ar       0.93874755       9.79489723       6.34105617      -0.04860157       0.01318210       0.04790866
Ar      17.30964634      14.47437391       2.02556496      -0.04652404       0.02645873      -0.05716552
Ar      12.30022427      13.63076311       6.45675536       0.06684608       0.08034272       0.08049976
Ar       2.73201757      16.41588291       8.73886574      -0.03416428      -0.12643765      -0.04271278
Ar       7.72870123       2.88033771      16.38020911       0.02561106       0.02778788      -0.00080420
Ar       2.74463746       7.61816861       0.03373284       0.03599821       0.09646052       0.05405600
Ar       2.82672900      13.43152280      11.88683312       0.01177649      -0.07590328      -0.01910994
Ar       5.11731877      14.58921173       6.64851231       0.03929422       0.03108810       0.03626037
Ar      14.75831173      12.64762171      16.52336856      -0.00813565      -0.01927995      -0.06704256
Ar      15.75161802      13.85986840      12.30481419      -0.02666605       0.03616341      -0.03183341
Ar       9.29525547      10.33793751      12.19523086      -0.03410073      -0.01406706      -0.00186930
Ar       9.80232418       9.67059138      15.84165723      -0.11473266      -0.04133768       0.07366315
Ar       9.85535504       5.31866675      10.53125684       0.03100467       0.04494525      -0.05890061
Ar       9.20232230       9.06762725       2.36189446      -0.02880042      -0.00032566       0.04087821
Ar       1.36279488      13.98799262      15.80320847       0.05091242      -0.05159806      -0.01754684
Ar       7.12141359      16.82335352      16.91387355      -0.01062810       0.13842404       0.04562121
Ar      17.01643813      11.01147397      14.11400692       0.05681431       0.00059624       0.03970958
Ar      13.57458636       1.47508880       6.97420979      -0.09935705      -0.07906663       0.08353478
Ar       6.03785025      11.19522486      12.98764446      -0.00292821       0.01188045       0.01503075
Ar       6.47518416      16.18143590       3.10323420      -0.03127308      -0.00690559      -0.11400158
Ar      13.66781625       9.72684885      14.95829827       0.07994140       0.03137696      -0.00850370
Ar      16.90918672       2.16227160      14.29267651      -0.04945052      -0.01445252      -0.02780712
Ar      15.98843409       2.97733297      10.91740513       0.04447107      -0.04482317      -0.08322645
Ar       8.13390454      12.77098653      16.51072392      -0.02127424      -0.08726278      -0.03021161
Ar      17.29790875       9.36372996       9.69839044       0.00505349       0.05181392       0.07294701
Ar       8.06839573      14.43942944      13.05618907      -0.01515925      -0.04808206       0.00612711
Ar       8.10203152       2.22375135      11.34347751      -0.02474487      -0.03785278       0.03709322
Ar       8.63737146      13.48855849       6.82015886      -0.00686054       0.00635570      -0.08432829
Ar      14.25082194      10.28724640       7.88605699       0.03338371      -0.06884168       0.08571596
Ar      11.78692048       2.18490040      10.06783521       0.04986439      -0.03297692       0.06645789
